*SPEF "1481-1998"
*DESIGN "s27"
*DATE "Wed Jul  2 16:52:10 2014"
*VENDOR "Synopsys, Inc."
*PROGRAM "icc_shell"
*VERSION "G-2012.06-ICC-SP5"
*DESIGN_FLOW "PIN_CAP NONE"
*DIVIDER /
*DELIMITER :
*BUS_DELIMITER [ ]
*T_UNIT 1 NS
*C_UNIT 1 FF
*R_UNIT 1 OHM
*L_UNIT 1 HENRY

*NAME_MAP
*1 G17
*2 G3
*3 G2
*4 G1
*5 G0
*6 CK
*7 VDD
*8 VSS
*9 NOR2_3
*10 G12
*11 NOR2_2
*12 OR2_0
*13 G13
*14 DFF_2
*15 G7
*16 G5
*17 NOR2_1
*18 DFF_0
*19 G9
*20 NAND2_0
*21 G11
*22 NOR2_0
*23 NOT_1
*24 DFF_1
*25 G14
*26 AND2_0
*27 NOT_0
*28 G10
*29 G16
*30 OR2_1
*31 G15
*32 G8
*33 G6

*PORTS
*1 O *L 0.0 *S 0.0 0.0
*2 I *L 0.0 *S 0.0 0.0
*3 I *L 0.0 *S 0.0 0.0
*4 I *L 0.0 *S 0.0 0.0
*5 I *L 0.0 *S 0.0 0.0
*6 I *L 0.0 *S 0.0 0.0
*7 I *L 0.0 *S 0.0 0.0
*8 I *L 0.0 *S 0.0 0.0

*D_NET *3 0.1907864

*CONN
*I *9:A1 I *L 1861.193 *C 5.387 3.712
*P *3 I *C 4.465 4.765
*N *3:3 *C 5.415 3.87
*N *3:4 *C 5.415 3.87
*N *3:5 *C 4.465 4.29
*N *3:6 *C 5.415 4.29

*CAP
1 *9:A1 0.006809506
2 *3 0.01871207
3 *3:3 0.0221692
4 *3:4 0.004225013
5 *3:5 0.06641449
6 *3:6 0.07245612

*RES
1 *9:A1 *3:4 0.1493966
2 *3:3 *3:4 22.5
3 *3:5 *3 1.093598
4 *3:5 *3:6 2.419575
5 *3:3 *3:6 0.8508748

*END

*D_NET *10 0.6599005

*CONN
*I *9:A2 I *L 1913.615 *C 5.062 3.712
*I *11:ZN O *L 0.0 *D NOR2_X1 *C 4.655 2.89
*I *12:A1 I *L 1013.075 *C 0.095 3.59
*N *10:4 *C 4.845 3.73
*N *10:5 *C 4.845 3.73
*N *10:6 *C 4.655 2.89
*N *10:7 *C 4.845 3.59
*N *10:8 *C 4.845 3.59
*N *10:9 *C 0.095 3.59
*N *10:10 *C 0.095 3.59
*N *10:11 *C 4.655 3.73
*N *10:12 *C 4.827 3.73

*CAP
1 *9:A2 0.01281286
2 *11:ZN 0.0
3 *12:A1 0.02289098
4 *10:4 0.01869861
5 *10:5 0.01022837
6 *10:6 0.05866125
7 *10:7 0.210919
8 *10:8 0.01117826
9 *10:9 0.2135165
10 *10:10 0.02289098
11 *10:11 0.06721979
12 *10:12 0.01088382

*RES
1 *10:4 *10:5 22.5
2 *10:6 *11:ZN 22.5
3 *10:7 *10:8 22.5
4 *10:9 *10:10 22.5
5 *10:10 *12:A1 22.5
6 *10:5 *9:A2 0.5920943
7 *10:6 *10:11 2.767478
8 *10:11 *10:12 0.3251218
9 *10:12 *10:4 0.2662162
10 *10:8 *10:4 0.5352634
11 *10:9 *10:7 11.012

*END

*D_NET *13 0.3778733

*CONN
*I *9:ZN O *L 0.0 *D NOR2_X1 *C 5.225 4.01
*I *14:D I *L 1269.6 *C 2.42 3.73
*N *13:3 *C 5.225 4.01
*N *13:4 *C 5.225 3.87
*N *13:5 *C 5.225 3.87
*N *13:6 *C 2.42 3.87
*N *13:7 *C 2.42 3.87
*N *13:8 *C 2.42 3.73

*CAP
1 *9:ZN 0.0
2 *14:D 0.0
3 *13:3 0.004433687
4 *13:4 0.1811929
5 *13:5 0.004420643
6 *13:6 0.1785954
7 *13:7 0.003310052
8 *13:8 0.005920633

*RES
1 *13:3 *9:ZN 22.5
2 *13:4 *13:5 22.5
3 *13:6 *13:7 22.5
4 *13:8 *14:D 22.5
5 *13:7 *13:8 0.130372
6 *13:5 *13:3 0.1311312
7 *13:6 *13:4 8.836085

*END

*D_NET *4 0.1132624

*CONN
*I *11:A1 I *L 1861.193 *C 4.845 2.47
*P *4 I *C 5.475 2.33
*N *4:3 *C 4.845 2.33
*N *4:4 *C 4.845 2.33
*N *4:5 *C 4.845 2.47

*CAP
1 *11:A1 0.0
2 *4 0.03345712
3 *4:3 0.03085958
4 *4:4 0.02446632
5 *4:5 0.02447937

*RES
1 *4:3 *4:4 22.5
2 *4:5 *11:A1 22.5
3 *4:4 *4:5 0.7115018
4 *4:3 *4 1.858842

*END

*D_NET *15 0.2091419

*CONN
*I *11:A2 I *L 1913.615 *C 4.465 2.47
*I *14:Q O *L 0.0 *D DFF_X1 *C 4.655 3.87
*N *15:3 *C 4.655 3.87
*N *15:4 *C 4.465 2.47
*N *15:5 *C 4.465 3.87

*CAP
1 *11:A2 0.0
2 *14:Q 0.0
3 *15:3 0.01174517
4 *15:4 0.09024128
5 *15:5 0.1071554

*RES
1 *15:3 *14:Q 22.5
2 *15:4 *11:A2 22.5
3 *15:4 *15:5 3.629234
4 *15:5 *15:3 0.5737442

*END

*D_NET *16 0.264282

*CONN
*I *17:A1 I *L 1861.193 *C 5.415 2.47
*I *18:Q O *L 0.0 *D DFF_X1 *C 4.085 1.35
*N *16:3 *C 5.415 2.47
*N *16:4 *C 5.415 1.35
*N *16:5 *C 5.415 1.35
*N *16:6 *C 4.085 1.35
*N *16:7 *C 4.085 1.35

*CAP
1 *17:A1 0.0
2 *18:Q 0.01004821
3 *16:3 0.06341963
4 *16:4 0.05997847
5 *16:5 0.06080905
6 *16:6 0.05997847
7 *16:7 0.01004821

*RES
1 *16:3 *17:A1 22.5
2 *16:4 *16:5 22.5
3 *16:6 *16:7 22.5
4 *16:7 *18:Q 22.5
5 *16:5 *16:3 2.648382
6 *16:6 *16:4 3.31055

*END

*D_NET *19 0.6269767

*CONN
*I *17:A2 I *L 1913.615 *C 5.035 2.47
*I *20:ZN O *L 0.0 *D NAND2_X1 *C 1.235 4.01
*N *19:3 *C 5.035 2.47
*N *19:4 *C 5.035 4.01
*N *19:5 *C 5.035 4.01
*N *19:6 *C 1.235 4.01
*N *19:7 *C 1.235 4.01

*CAP
1 *17:A2 0.0
2 *20:ZN 0.01218555
3 *19:3 0.09779953
4 *19:4 0.2048086
5 *19:5 0.09518895
6 *19:6 0.2048086
7 *19:7 0.01218555

*RES
1 *19:3 *17:A2 22.5
2 *19:4 *19:5 22.5
3 *19:6 *19:7 22.5
4 *19:7 *20:ZN 22.5
5 *19:3 *19:5 4.023204
6 *19:6 *19:4 11.09653

*END

*D_NET *21 0.7418439

*CONN
*I *17:ZN O *L 0.0 *D NOR2_X1 *C 5.225 2.19
*I *22:A2 I *L 1913.615 *C 0.502 0.912
*I *23:A I *L 1938.113 *C 0.095 2.47
*I *24:D I *L 1269.6 *C 1.995 2.47
*N *21:5 *C 0.095 2.47
*N *21:6 *C 0.095 2.47
*N *21:7 *C 1.995 2.47
*N *21:8 *C 1.995 2.47
*N *21:9 *C 5.225 2.19
*N *21:10 *C 5.225 2.47
*N *21:11 *C 5.225 2.47
*N *21:12 *C 0.285 2.05
*N *21:13 *C 0.285 2.05
*N *21:14 *C 0.475 1.07
*N *21:15 *C 0.475 1.07
*N *21:16 *C 0.285 1.07
*N *21:17 *C 0.475 2.47
*N *21:18 *C 0.475 2.05

*CAP
1 *17:ZN 0.0
2 *22:A2 0.007421351
3 *23:A 0.0
4 *24:D 0.0
5 *21:5 0.009771631
6 *21:6 0.02930345
7 *21:7 0.006011724
8 *21:8 0.2031174
9 *21:9 0.03113556
10 *21:10 0.1328086
11 *21:11 0.02852498
12 *21:12 0.004983995
13 *21:13 0.06068022
14 *21:14 0.01529191
15 *21:15 0.002252366
16 *21:16 0.08633619
17 *21:17 0.09632967
18 *21:18 0.02787494

*RES
1 *21:5 *23:A 22.5
2 *21:6 *21:5 22.5
3 *21:7 *24:D 22.5
4 *21:8 *21:7 22.5
5 *21:9 *17:ZN 22.5
6 *21:10 *21:11 22.5
7 *21:12 *21:13 22.5
8 *22:A2 *21:15 0.1500073
9 *21:14 *21:15 22.5
10 *21:16 *21:13 2.451942
11 *21:16 *21:14 0.2880887
12 *21:9 *21:11 0.7695607
13 *21:6 *21:17 1.094655
14 *21:17 *21:8 3.697501
15 *21:8 *21:10 7.716529
16 *21:12 *21:18 0.6720713
17 *21:18 *21:17 0.9496476

*END

*D_NET *25 0.5816979

*CONN
*I *22:A1 I *L 1861.193 *C 0.855 0.93
*I *26:A1 I *L 1060.224 *C 4.682 0.912
*I *27:ZN O *L 0.0 *D INV_X1 *C 0.285 0.93
*N *25:4 *C 0.855 0.79
*N *25:5 *C 0.855 0.79
*N *25:6 *C 0.855 0.93
*N *25:7 *C 0.285 0.79
*N *25:8 *C 0.285 0.79
*N *25:9 *C 0.285 0.93
*N *25:10 *C 4.275 0.93
*N *25:11 *C 4.275 0.93
*N *25:12 *C 4.275 0.93
*N *25:13 *C 0.855 0.93

*CAP
1 *22:A1 0.0
2 *26:A1 0.02587361
3 *27:ZN 0.0
4 *25:4 0.02715174
5 *25:5 0.01395586
6 *25:6 0.01656644
7 *25:7 0.01808641
8 *25:8 0.01446817
9 *25:9 0.01707875
10 *25:10 0.192343
11 *25:11 0.01184845
12 *25:12 0.03772206
13 *25:13 0.2066034

*RES
1 *25:4 *25:5 22.5
2 *25:6 *22:A1 22.5
3 *25:7 *25:8 22.5
4 *25:9 *27:ZN 22.5
5 *25:10 *25:11 22.5
6 *25:11 *25:12 22.5
7 *25:12 *26:A1 1.267472
8 *25:8 *25:9 0.4663669
9 *25:5 *25:6 0.4614199
10 *25:7 *25:4 1.524328
11 *25:4 *25:13 0.4605392
12 *25:13 *25:10 10.17388

*END

*D_NET *28 0.2168717

*CONN
*I *22:ZN O *L 0.0 *D NOR2_X1 *C 0.665 1.21
*I *18:D I *L 1269.6 *C 1.805 0.93
*N *28:3 *C 0.665 1.21
*N *28:4 *C 0.665 1.21
*N *28:5 *C 1.805 1.21
*N *28:6 *C 1.805 1.21
*N *28:7 *C 1.805 0.93

*CAP
1 *22:ZN 0.0
2 *18:D 0.0
3 *28:3 0.007250336
4 *28:4 0.08422137
5 *28:5 0.07177596
6 *28:6 0.02550671
7 *28:7 0.02811729

*RES
1 *28:3 *22:ZN 22.5
2 *28:4 *28:3 22.5
3 *28:5 *28:6 22.5
4 *28:7 *18:D 22.5
5 *28:7 *28:6 0.6303555
6 *28:4 *28:5 3.721249

*END

*D_NET *29 0.1676352

*CONN
*I *20:A1 I *L 1841.374 *C 1.425 3.73
*I *30:ZN O *L 0.0 *D OR2_X1 *C 1.045 2.89
*N *29:3 *C 1.425 3.73
*N *29:4 *C 1.425 2.89
*N *29:5 *C 1.425 2.89
*N *29:6 *C 1.045 2.89
*N *29:7 *C 1.045 2.89

*CAP
1 *20:A1 0.0
2 *30:ZN 0.008441456
3 *29:3 0.05652505
4 *29:4 0.02015637
5 *29:5 0.05391447
6 *29:6 0.02015637
7 *29:7 0.008441456

*RES
1 *29:3 *20:A1 22.5
2 *29:4 *29:5 22.5
3 *29:6 *29:7 22.5
4 *29:7 *30:ZN 22.5
5 *29:5 *29:3 1.700462
6 *29:6 *29:4 1.17066

*END

*D_NET *31 0.03492899

*CONN
*I *20:A2 I *L 1883.517 *C 1.072 3.712
*I *12:ZN O *L 0.0 *D OR2_X1 *C 0.655 3.795

*CAP
1 *20:A2 0.0174645
2 *12:ZN 0.0174645

*RES
1 *12:ZN *20:A2 0.8651211

*END

*D_NET *2 0.3140823

*CONN
*I *30:A1 I *L 1013.075 *C 0.475 2.61
*P *2 I *C 1.045 4.765
*N *2:3 *C 0.475 2.61
*N *2:4 *C 0.475 3.17
*N *2:5 *C 1.045 3.17

*CAP
1 *30:A1 0.009797399
2 *2 0.06952436
3 *2:3 0.05714539
4 *2:4 0.07771939
5 *2:5 0.09989576

*RES
1 *2:3 *30:A1 22.5
2 *2:3 *2:4 1.268164
3 *2:4 *2:5 1.368422
4 *2:5 *2 3.512599

*END

*D_NET *32 1.027969

*CONN
*I *30:A2 I *L 1077.17 *C 0.665 2.47
*I *12:A2 I *L 1077.17 *C 0.285 3.73
*I *26:ZN O *L 0.0 *D AND2_X1 *C 5.225 1.07
*N *32:4 *C 0.285 3.73
*N *32:5 *C 0.285 2.89
*N *32:6 *C 0.285 2.89
*N *32:7 *C 0.665 2.47
*N *32:8 *C 0.665 2.89
*N *32:9 *C 0.665 2.89
*N *32:10 *C 0.655 2.89
*N *32:11 *C 0.655 1.07
*N *32:12 *C 0.655 1.07
*N *32:13 *C 5.225 1.07
*N *32:14 *C 5.225 1.07

*CAP
1 *30:A2 0.0
2 *12:A2 0.0
3 *26:ZN 0.008783402
4 *32:4 0.0697686
5 *32:5 0.01975168
6 *32:6 0.06715802
7 *32:7 0.04269161
8 *32:8 0.0196776
9 *32:9 0.04008104
10 *32:10 0.1045454
11 *32:11 0.1045454
12 *32:12 0.2710541
13 *32:13 0.2711282
14 *32:14 0.008783402

*RES
1 *32:4 *12:A2 22.5
2 *32:5 *32:6 22.5
3 *32:7 *30:A2 22.5
4 *32:8 *32:9 22.5
5 *32:10 *32:8 22.5
6 *32:11 *32:12 22.5
7 *32:13 *32:14 22.5
8 *32:14 *26:ZN 22.5
9 *32:6 *32:4 1.888574
10 *32:7 *32:9 0.7876279
11 *32:5 *32:8 1.148148
12 *32:12 *32:13 14.7353
13 *32:11 *32:10 3.575499

*END

*D_NET *33 0.2300268

*CONN
*I *26:A2 I *L 1092.433 *C 4.845 0.93
*I *24:Q O *L 0.0 *D DFF_X1 *C 4.275 2.05
*N *33:3 *C 4.845 0.93
*N *33:4 *C 4.845 1.77
*N *33:5 *C 4.845 1.77
*N *33:6 *C 4.275 1.77
*N *33:7 *C 4.275 1.77
*N *33:8 *C 4.275 2.05

*CAP
1 *26:A2 0.0
2 *24:Q 0.0
3 *33:3 0.05445766
4 *33:4 0.0271262
5 *33:5 0.05184708
6 *33:6 0.0271262
7 *33:7 0.03342955
8 *33:8 0.03604013

*RES
1 *33:3 *26:A2 22.5
2 *33:4 *33:5 22.5
3 *33:6 *33:7 22.5
4 *33:8 *24:Q 22.5
5 *33:7 *33:8 0.7784193
6 *33:3 *33:5 1.654683
7 *33:6 *33:4 1.598717

*END

*D_NET *1 0.07406386

*CONN
*I *23:ZN O *L 0.0 *D INV_X1 *C 0.285 2.33
*P *1 O *C 0.035 2.33
*N *1:3 *C 0.285 2.33
*N *1:4 *C 0.285 2.33

*CAP
1 *23:ZN 0.01817149
2 *1 0.0201592
3 *1:3 0.01756166
4 *1:4 0.01817149

*RES
1 *1:3 *1:4 22.5
2 *1:4 *23:ZN 22.5
3 *1 *1:3 0.8965577

*END

*D_NET *5 0.2264674

*CONN
*I *27:A I *L 1938.113 *C 0.095 0.93
*P *5 I *C 1.045 0.035
*N *5:3 *C 0.095 0.93
*N *5:4 *C 0.095 0.37
*N *5:5 *C 0.095 0.37
*N *5:6 *C 1.045 0.37
*N *5:7 *C 1.045 0.37

*CAP
1 *27:A 0.0
2 *5 0.02692265
3 *5:3 0.04525431
4 *5:4 0.04366732
5 *5:5 0.04522822
6 *5:6 0.04366732
7 *5:7 0.02172757

*RES
1 *5:3 *27:A 22.5
2 *5:4 *5:5 22.5
3 *5:6 *5:7 22.5
4 *5:5 *5:3 1.344108
5 *5 *5:7 0.5382731
6 *5:4 *5:6 2.453884

*END

*D_NET *6 0.8008912

*CONN
*I *14:CK I *L 1066.76 *C 3.135 3.73
*I *24:CK I *L 1066.76 *C 2.755 2.47
*I *18:CK I *L 1066.76 *C 2.565 0.93
*P *6 I *C 4.465 0.035
*N *6:5 *C 4.465 2.05
*N *6:6 *C 4.465 2.05
*N *6:7 *C 2.945 2.05
*N *6:8 *C 2.945 2.05
*N *6:9 *C 3.135 3.73
*N *6:10 *C 2.755 2.47
*N *6:11 *C 2.565 0.93
*N *6:12 *C 2.565 2.05
*N *6:13 *C 2.755 2.05
*N *6:14 *C 2.945 3.59
*N *6:15 *C 3.135 3.59

*CAP
1 *14:CK 0.0
2 *24:CK 0.0
3 *18:CK 0.0
4 *6 0.1194041
5 *6:5 0.06681888
6 *6:6 0.1142091
7 *6:7 0.06681888
8 *6:8 0.08203607
9 *6:9 0.0161711
10 *6:10 0.02888351
11 *6:11 0.06510596
12 *6:12 0.07497465
13 *6:13 0.04685879
14 *6:14 0.0899895
15 *6:15 0.02962053

*RES
1 *6:5 *6:6 22.5
2 *6:7 *6:8 22.5
3 *6:9 *14:CK 22.5
4 *6:10 *24:CK 22.5
5 *6:11 *18:CK 22.5
6 *6:11 *6:12 2.521422
7 *6:12 *6:13 0.3721147
8 *6:13 *6:8 0.4141276
9 *6:13 *6:10 0.7915019
10 *6:8 *6:14 3.806185
11 *6:14 *6:15 0.4561405
12 *6:15 *6:9 0.1951447
13 *6 *6:6 4.775776
14 *6:7 *6:5 3.73744

*END
