*SPEF "1481-1998"
*DESIGN "s298"
*DATE "Wed Jul  2 16:52:27 2014"
*VENDOR "Synopsys, Inc."
*PROGRAM "icc_shell"
*VERSION "G-2012.06-ICC-SP5"
*DESIGN_FLOW "PIN_CAP NONE"
*DIVIDER /
*DELIMITER :
*BUS_DELIMITER [ ]
*T_UNIT 1 NS
*C_UNIT 1 FF
*R_UNIT 1 OHM
*L_UNIT 1 HENRY

*NAME_MAP
*1 G0
*2 CK
*3 VDD
*4 VSS
*5 G67
*6 G133
*7 G118
*8 G66
*9 G132
*10 G117
*11 G2
*12 G1
*13 G128
*14 NOR3_4
*15 AND2_19
*16 G129
*17 AND2_20
*18 G130
*19 NOR3_3
*20 NOR3_1
*21 NOR4_1
*22 NOR4_0
*23 NOR2_0
*24 NOT_37
*25 NOT_0
*26 G125
*27 DFF_13
*28 G122
*29 AND2_17
*30 G123
*31 AND2_18
*32 G119
*33 DFF_12
*34 G115
*35 NOR2_10
*36 AND2_16
*37 G116
*38 NAND4_5
*39 G113
*40 DFF_11
*41 G62
*42 NOR2_9
*43 AND4_2
*44 G63
*45 AND2_8
*46 G112
*47 NOR4_2
*48 OR4_2
*49 AND2_15
*50 NOT_24
*51 G110
*52 NOR2_8
*53 AND2_14
*54 G111
*55 G107
*56 DFF_10
*57 G74
*58 NOR2_7
*59 AND3_3
*60 G75
*61 AND3_4
*62 G104
*63 AND3_6
*64 G105
*65 NOR2_6
*66 G106
*67 NAND2_0
*68 G102
*69 DFF_9
*70 G100
*71 NOR2_5
*72 AND3_5
*73 G101
*74 NAND4_3
*75 G98
*76 DFF_8
*77 G94
*78 NOR3_2
*79 AND2_12
*80 G95
*81 AND2_13
*82 G97
*83 NAND4_2
*84 G92
*85 DFF_7
*86 extra2
*87 NOR4_2_A
*88 G86
*89 DFF_6
*90 G88
*91 AND2_9
*92 G89
*93 AND2_10
*94 G90
*95 AND2_11
*96 G14
*97 NOT_21
*98 NOT_5
*99 DFF_4
*100 NOR2_4
*101 NAND4_4
*102 OR3_2
*103 OR2_6
*104 OR2_5
*105 OR2_1
*106 G55
*107 NOT_8
*108 G61
*109 NAND4_1
*110 AND4_1
*111 G57
*112 G58
*113 AND2_7
*114 G56
*115 DFF_5
*116 G26
*117 NOR2_3
*118 AND2_0
*119 G27
*120 AND2_1
*121 G53
*122 NOR3_0
*123 G50
*124 NOR2_2
*125 AND3_2
*126 G40
*127 OR4_0
*128 AND2_6
*129 NOT_2
*130 G47
*131 AND4_0
*132 G48
*133 G49
*134 G44
*135 G42
*136 NOR2_1
*137 G43
*138 NAND3_1
*139 G39
*140 DFF_3
*141 extra1
*142 NOR4_1_A
*143 G34
*144 DFF_2
*145 G35
*146 AND3_1
*147 G36
*148 AND2_4
*149 G37
*150 AND2_5
*151 extra0
*152 NOR4_0_A
*153 G30
*154 DFF_1
*155 G31
*156 AND3_0
*157 G32
*158 AND2_2
*159 G33
*160 AND2_3
*161 G10
*162 NOT_16
*163 NOT_1
*164 DFF_0
*165 NAND4_0
*166 NAND3_0
*167 G29
*168 G79
*169 G80
*170 G81
*171 OR2_7
*172 G108
*173 OR2_4
*174 G71
*175 OR3_1
*176 G72
*177 OR2_2
*178 G73
*179 OR2_3
*180 G109
*181 G77
*182 G78
*183 G68
*184 OR4_1
*185 G69
*186 OR2_0
*187 G70
*188 G83
*189 OR4_3
*190 G84
*191 G85
*192 OR3_3
*193 G59
*194 NOT_9
*195 G54
*196 NOT_7
*197 G22
*198 NOT_31
*199 NOT_10
*200 G65
*201 G13
*202 NOT_23
*203 G45
*204 NOT_3
*205 G46
*206 NOT_4
*207 G52
*208 G24
*209 G25
*210 OR3_0
*211 G28
*212 G12
*213 NOT_19
*214 G11
*215 NOT_17
*216 G41
*217 G91
*218 G96
*219 G17
*220 NOT_20
*221 NOT_14
*222 G82
*223 G103
*224 G76
*225 G19
*226 NOT_28
*227 G20
*228 NOT_40
*229 G18
*230 NOT_26
*231 NOT_22
*232 G38
*233 G131
*234 NOT_39
*235 NOT_34
*236 G23
*237 NOT_35
*238 NOT_6
*239 G126
*240 G127
*241 G124
*242 NOT_33
*243 NOT_30
*244 G120
*245 G121
*246 G114
*247 NOT_25
*248 G99
*249 G93
*250 G87
*251 NOT_18
*252 G64
*253 NOT_11
*254 G60
*255 G51
*256 II238
*257 NOT_43
*258 NOT_42
*259 G21
*260 II235
*261 NOT_41
*262 II232
*263 NOT_38
*264 II229
*265 NOT_36
*266 II221
*267 NOT_32
*268 II213
*269 NOT_29
*270 II210
*271 NOT_27
*272 G16
*273 NOT_12
*274 II158
*275 NOT_15
*276 II155
*277 NOT_13
*278 G15

*PORTS
*1 I *L 0.0 *S 0.0 0.0
*2 I *L 0.0 *S 0.0 0.0
*3 I *L 0.0 *S 0.0 0.0
*4 I *L 0.0 *S 0.0 0.0
*5 O *L 0.0 *S 0.0 0.0
*6 O *L 0.0 *S 0.0 0.0
*7 O *L 0.0 *S 0.0 0.0
*8 O *L 0.0 *S 0.0 0.0
*9 O *L 0.0 *S 0.0 0.0
*10 O *L 0.0 *S 0.0 0.0
*11 I *L 0.0 *S 0.0 0.0
*12 I *L 0.0 *S 0.0 0.0

*D_NET *13 0.1670312

*CONN
*I *14:A1 I *L 1864.053 *C 11.132 13.687
*I *15:ZN O *L 0.0 *D AND2_X1 *C 10.545 13.39
*N *13:3 *C 10.545 13.39
*N *13:4 *C 10.545 13.39
*N *13:5 *C 11.115 13.39
*N *13:6 *C 11.115 13.39
*N *13:7 *C 11.115 13.53
*N *13:8 *C 11.115 13.53

*CAP
1 *14:A1 0.006138919
2 *15:ZN 0.0
3 *13:3 0.007540086
4 *13:4 0.06607151
5 *13:5 0.05333634
6 *13:6 0.01388968
7 *13:7 0.01650026
8 *13:8 0.003554427

*RES
1 *13:3 *15:ZN 22.5
2 *13:4 *13:3 22.5
3 *13:5 *13:6 22.5
4 *14:A1 *13:8 0.1487859
5 *13:7 *13:8 22.5
6 *13:6 *13:7 0.4531661
7 *13:4 *13:5 3.080671

*END

*D_NET *16 0.1670711

*CONN
*I *14:A2 I *L 1844.203 *C 10.952 13.687
*I *17:ZN O *L 0.0 *D AND2_X1 *C 10.545 12.69
*N *16:3 *C 10.545 12.69
*N *16:4 *C 10.925 13.53
*N *16:5 *C 10.925 13.53
*N *16:6 *C 10.925 12.69

*CAP
1 *14:A2 0.006138919
2 *17:ZN 0.0
3 *16:3 0.03478856
4 *16:4 0.04131582
5 *16:5 0.0009699349
6 *16:6 0.08385786

*RES
1 *16:3 *17:ZN 22.5
2 *14:A2 *16:5 0.1487859
3 *16:4 *16:5 22.5
4 *16:3 *16:6 0.9689904
5 *16:6 *16:4 2.175576

*END

*D_NET *18 2.835052

*CONN
*I *14:A3 I *L 1885.075 *C 10.735 13.67
*I *19:A3 I *L 1885.075 *C 12.655 10.87
*I *20:A3 I *L 1885.075 *C 10.165 0.93
*I *21:A2 I *L 1913.615 *C 10.002 5.287
*I *22:A2 I *L 1913.615 *C 13.775 2.47
*I *23:A2 I *L 1913.615 *C 10.735 9.33
*I *24:ZN O *L 0.0 *D INV_X1 *C 11.115 0.93
*I *25:A I *L 1938.113 *C 11.305 10.87
*N *18:9 *C 11.855 10.87
*N *18:10 *C 11.855 10.87
*N *18:11 *C 9.975 4.71
*N *18:12 *C 9.975 4.71
*N *18:13 *C 9.975 5.13
*N *18:14 *C 9.975 5.13
*N *18:15 *C 10.165 0.93
*N *18:16 *C 10.165 1.07
*N *18:17 *C 10.165 1.07
*N *18:18 *C 13.205 2.47
*N *18:19 *C 13.205 2.47
*N *18:20 *C 13.205 4.85
*N *18:21 *C 13.205 4.85
*N *18:22 *C 13.775 2.47
*N *18:23 *C 13.775 2.47
*N *18:24 *C 10.735 9.33
*N *18:25 *C 10.735 9.89
*N *18:26 *C 10.735 9.89
*N *18:27 *C 11.305 9.89
*N *18:28 *C 11.305 9.89
*N *18:29 *C 11.305 10.87
*N *18:30 *C 11.115 0.93
*N *18:31 *C 11.115 1.07
*N *18:32 *C 11.115 1.07
*N *18:33 *C 11.575 2.33
*N *18:34 *C 11.575 2.33
*N *18:35 *C 11.575 1.07
*N *18:36 *C 11.575 1.07
*N *18:37 *C 11.305 10.87
*N *18:38 *C 12.655 10.87
*N *18:39 *C 12.635 10.87
*N *18:40 *C 10.735 13.67
*N *18:41 *C 10.735 13.53
*N *18:42 *C 10.735 13.53
*N *18:43 *C 11.855 13.53
*N *18:44 *C 11.855 13.53
*N *18:45 *C 11.855 4.85
*N *18:46 *C 11.855 4.85
*N *18:47 *C 11.855 4.71
*N *18:48 *C 13.205 2.33

*CAP
1 *14:A3 0.0
2 *19:A3 0.0
3 *20:A3 0.0
4 *21:A2 0.008059687
5 *22:A2 0.0
6 *23:A2 0.0
7 *24:ZN 0.0
8 *25:A 0.0
9 *18:9 0.3769303
10 *18:10 0.08286983
11 *18:11 0.1005526
12 *18:12 0.04854855
13 *18:13 0.04857464
14 *18:14 0.002890703
15 *18:15 0.005971501
16 *18:16 0.06080593
17 *18:17 0.003360921
18 *18:18 0.02561233
19 *18:19 0.1907457
20 *18:20 0.06634396
21 *18:21 0.1907457
22 *18:22 0.004957101
23 *18:23 0.03050036
24 *18:24 0.05236082
25 *18:25 0.03261423
26 *18:26 0.04975024
27 *18:27 0.03261423
28 *18:28 0.07966299
29 *18:29 0.07966299
30 *18:30 0.01813952
31 *18:31 0.09762768
32 *18:32 0.01552894
33 *18:33 0.05846111
34 *18:34 0.07365798
35 *18:35 0.05846111
36 *18:36 0.03155261
37 *18:37 0.03243498
38 *18:38 0.007988226
39 *18:39 0.05849714
40 *18:40 0.02053787
41 *18:41 0.06553919
42 *18:42 0.02052483
43 *18:43 0.1060282
44 *18:44 0.06286757
45 *18:45 0.265633
46 *18:46 0.07188408
47 *18:47 0.1113619
48 *18:48 0.08419128

*RES
1 *18:9 *18:10 22.5
2 *18:11 *18:12 22.5
3 *21:A2 *18:14 0.1502108
4 *18:13 *18:14 22.5
5 *18:15 *20:A3 22.5
6 *18:16 *18:17 22.5
7 *18:18 *18:19 22.5
8 *18:20 *18:21 22.5
9 *18:22 *22:A2 22.5
10 *18:23 *18:22 22.5
11 *18:24 *23:A2 22.5
12 *18:25 *18:26 22.5
13 *18:27 *18:28 22.5
14 *18:29 *25:A 22.5
15 *18:30 *24:ZN 22.5
16 *18:31 *18:32 22.5
17 *18:33 *18:34 22.5
18 *18:35 *18:36 22.5
19 *18:37 *18:29 22.5
20 *18:38 *19:A3 22.5
21 *18:39 *18:38 22.5
22 *18:40 *14:A3 22.5
23 *18:41 *18:42 22.5
24 *18:43 *18:44 22.5
25 *18:45 *18:46 22.5
26 *18:12 *18:13 1.171521
27 *18:17 *18:15 0.1311312
28 *18:24 *18:26 1.067208
29 *18:42 *18:40 0.3995648
30 *18:30 *18:32 0.4626921
31 *18:28 *18:29 2.399371
32 *18:19 *18:21 7.060376
33 *18:11 *18:47 6.083008
34 *18:16 *18:31 3.284195
35 *18:31 *18:36 1.880873
36 *18:25 *18:27 1.63719
37 *18:41 *18:44 3.214754
38 *18:37 *18:10 1.436712
39 *18:10 *18:39 1.969686
40 *18:34 *18:48 3.999855
41 *18:47 *18:46 0.3122655
42 *18:46 *18:20 3.66305
43 *18:48 *18:18 0.2820046
44 *18:18 *18:23 1.572166
45 *18:35 *18:33 2.553928
46 *18:45 *18:9 11.1219
47 *18:9 *18:43 4.980159

*END

*D_NET *26 0.1817302

*CONN
*I *14:ZN O *L 0.0 *D NOR3_X1 *C 11.115 13.95
*I *27:D I *L 1269.6 *C 12.255 13.67
*N *26:3 *C 11.115 13.95
*N *26:4 *C 11.115 13.95
*N *26:5 *C 12.255 13.95
*N *26:6 *C 12.255 13.95
*N *26:7 *C 12.255 13.67

*CAP
1 *14:ZN 0.008575396
2 *27:D 0.0
3 *26:3 0.01637773
4 *26:4 0.06054452
5 *26:5 0.0501316
6 *26:6 0.02174519
7 *26:7 0.02435577

*RES
1 *26:3 *14:ZN 22.5
2 *26:4 *26:3 22.5
3 *26:5 *26:6 22.5
4 *26:7 *27:D 22.5
5 *26:7 *26:6 0.6303555
6 *26:4 *26:5 3.061908

*END

*D_NET *28 0.3446416

*CONN
*I *19:A1 I *L 1864.053 *C 13.032 10.887
*I *29:ZN O *L 0.0 *D AND2_X1 *C 14.535 10.31
*N *28:3 *C 12.825 10.45
*N *28:4 *C 12.825 10.45
*N *28:5 *C 12.825 10.17
*N *28:6 *C 12.825 10.17
*N *28:7 *C 14.535 10.31
*N *28:8 *C 14.535 10.31
*N *28:9 *C 13.015 10.45
*N *28:10 *C 13.585 10.17
*N *28:11 *C 13.585 10.31

*CAP
1 *19:A1 0.02031743
2 *29:ZN 0.007762976
3 *28:3 0.04104067
4 *28:4 0.01864832
5 *28:5 0.04163392
6 *28:6 0.03843009
7 *28:7 0.03169126
8 *28:8 0.007762976
9 *28:9 0.04155024
10 *28:10 0.0528732
11 *28:11 0.04293054

*RES
1 *28:3 *28:4 22.5
2 *28:5 *28:6 22.5
3 *28:7 *28:8 22.5
4 *28:8 *29:ZN 22.5
5 *28:4 *28:9 0.7092374
6 *28:9 *19:A1 0.8892522
7 *28:6 *28:3 0.8673442
8 *28:5 *28:10 2.077523
9 *28:10 *28:11 0.3374087
10 *28:11 *28:7 2.330809

*END

*D_NET *30 0.1328959

*CONN
*I *19:A2 I *L 1844.203 *C 12.825 10.87
*I *31:ZN O *L 0.0 *D AND2_X1 *C 12.445 11.29
*N *30:3 *C 12.445 11.29
*N *30:4 *C 12.825 10.87
*N *30:5 *C 12.825 11.29

*CAP
1 *19:A2 0.0
2 *31:ZN 0.0
3 *30:3 0.03193623
4 *30:4 0.03063499
5 *30:5 0.07032469

*RES
1 *30:3 *31:ZN 22.5
2 *30:4 *19:A2 22.5
3 *30:3 *30:5 1.012445
4 *30:4 *30:5 1.38966

*END

*D_NET *32 1.022169

*CONN
*I *19:ZN O *L 0.0 *D NOR3_X1 *C 13.205 10.59
*I *33:D I *L 1269.6 *C 11.16 2.47
*N *32:3 *C 13.205 10.59
*N *32:4 *C 13.205 10.59
*N *32:5 *C 12.695 10.59
*N *32:6 *C 12.695 10.59
*N *32:7 *C 12.695 2.47
*N *32:8 *C 12.695 2.47
*N *32:9 *C 11.16 2.47
*N *32:10 *C 11.16 2.47

*CAP
1 *19:ZN 0.0
2 *33:D 0.009927048
3 *32:3 0.00711944
4 *32:4 0.05678554
5 *32:5 0.3500828
6 *32:6 0.04439696
7 *32:7 0.3500828
8 *32:8 0.09688647
9 *32:9 0.09696054
10 *32:10 0.009927048

*RES
1 *32:3 *19:ZN 22.5
2 *32:4 *32:3 22.5
3 *32:5 *32:6 22.5
4 *32:7 *32:8 22.5
5 *32:9 *32:10 22.5
6 *32:10 *33:D 22.5
7 *32:9 *32:8 5.025836
8 *32:6 *32:4 2.170989
9 *32:7 *32:5 15.08248

*END

*D_NET *34 0.1979974

*CONN
*I *35:A1 I *L 1861.193 *C 6.935 12.13
*I *36:ZN O *L 0.0 *D AND2_X1 *C 7.695 11.85
*N *34:3 *C 6.935 12.13
*N *34:4 *C 6.935 11.85
*N *34:5 *C 6.935 11.85
*N *34:6 *C 7.695 11.85
*N *34:7 *C 7.695 11.85

*CAP
1 *35:A1 0.0
2 *36:ZN 0.01008256
3 *34:3 0.03774209
4 *34:4 0.05247936
5 *34:5 0.03513151
6 *34:6 0.05247936
7 *34:7 0.01008256

*RES
1 *34:3 *35:A1 22.5
2 *34:4 *34:5 22.5
3 *34:6 *34:7 22.5
4 *34:7 *36:ZN 22.5
5 *34:5 *34:3 0.4867625
6 *34:4 *34:6 3.075883

*END

*D_NET *37 0.6605538

*CONN
*I *35:A2 I *L 1913.615 *C 6.555 12.13
*I *38:ZN O *L 0.0 *D NAND4_X1 *C 6.91 6.152
*N *37:3 *C 6.555 6.67
*N *37:4 *C 6.555 6.67
*N *37:5 *C 6.555 12.13

*CAP
1 *35:A2 0.0
2 *38:ZN 0.01533605
3 *37:3 0.3162331
4 *37:4 0.01275156
5 *37:5 0.3162331

*RES
1 *37:3 *37:4 22.5
2 *37:5 *35:A2 22.5
3 *37:4 *38:ZN 0.1217886
4 *37:3 *37:5 13.27521

*END

*D_NET *39 0.2468472

*CONN
*I *35:ZN O *L 0.0 *D NOR2_X1 *C 6.745 12.41
*I *40:D I *L 1269.6 *C 6.365 13.67
*N *39:3 *C 6.745 12.41
*N *39:4 *C 6.745 12.41
*N *39:5 *C 6.365 12.41
*N *39:6 *C 6.365 12.41
*N *39:7 *C 6.365 13.67

*CAP
1 *35:ZN 0.0
2 *40:D 0.0
3 *39:3 0.007593513
4 *39:4 0.04084625
5 *39:5 0.02805766
6 *39:6 0.08386959
7 *39:7 0.08648018

*RES
1 *39:3 *35:ZN 22.5
2 *39:4 *39:3 22.5
3 *39:5 *39:6 22.5
4 *39:7 *40:D 22.5
5 *39:6 *39:7 3.014487
6 *39:5 *39:4 1.201089

*END

*D_NET *41 0.5132402

*CONN
*I *42:A1 I *L 1861.193 *C 6.935 2.47
*I *43:ZN O *L 0.0 *D AND4_X1 *C 8.835 3.31
*N *41:3 *C 6.935 2.47
*N *41:4 *C 6.935 2.75
*N *41:5 *C 6.935 2.75
*N *41:6 *C 8.495 2.75
*N *41:7 *C 8.495 2.75
*N *41:8 *C 8.495 3.31
*N *41:9 *C 8.495 3.31
*N *41:10 *C 8.835 3.31
*N *41:11 *C 8.835 3.31

*CAP
1 *42:A1 0.0
2 *43:ZN 0.01212476
3 *41:3 0.03883598
4 *41:4 0.1297222
5 *41:5 0.0362254
6 *41:6 0.0500359
7 *41:7 0.1296481
8 *41:8 0.0500359
9 *41:9 0.02720661
10 *41:10 0.02728068
11 *41:11 0.01212476

*RES
1 *41:3 *42:A1 22.5
2 *41:4 *41:5 22.5
3 *41:6 *41:7 22.5
4 *41:8 *41:9 22.5
5 *41:10 *41:11 22.5
6 *41:11 *43:ZN 22.5
7 *41:3 *41:5 0.4479742
8 *41:4 *41:7 7.587794
9 *41:9 *41:10 1.232554
10 *41:6 *41:8 1.287823

*END

*D_NET *44 0.3270501

*CONN
*I *42:A2 I *L 1913.615 *C 6.555 2.47
*I *45:ZN O *L 0.0 *D AND2_X1 *C 8.265 2.47
*N *44:3 *C 6.555 2.47
*N *44:4 *C 6.555 2.47
*N *44:5 *C 8.265 2.47
*N *44:6 *C 8.265 2.47

*CAP
1 *42:A2 0.0
2 *45:ZN 0.01271161
3 *44:3 0.008438694
4 *44:4 0.153411
5 *44:5 0.1397772
6 *44:6 0.01271161

*RES
1 *44:3 *42:A2 22.5
2 *44:4 *44:3 22.5
3 *44:5 *44:6 22.5
4 *44:6 *45:ZN 22.5
5 *44:4 *44:5 8.14407

*END

*D_NET *46 1.6987

*CONN
*I *42:ZN O *L 0.0 *D NOR2_X1 *C 6.745 2.89
*I *47:A2 I *L 1913.615 *C 6.935 3.73
*I *48:A1 I *L 975.4661 *C 4.845 8.21
*I *49:A2 I *L 1092.433 *C 4.515 9.33
*I *50:A I *L 1938.113 *C 4.482 3.712
*N *46:6 *C 6.745 2.89
*N *46:7 *C 6.935 3.73
*N *46:8 *C 5.695 3.73
*N *46:9 *C 5.695 3.73
*N *46:10 *C 5.695 8.35
*N *46:11 *C 5.695 8.35
*N *46:12 *C 4.845 8.35
*N *46:13 *C 4.845 8.35
*N *46:14 *C 4.845 8.21
*N *46:15 *C 6.555 3.73
*N *46:16 *C 6.555 3.73
*N *46:17 *C 4.515 9.33
*N *46:18 *C 4.515 9.33
*N *46:19 *C 5.695 9.33
*N *46:20 *C 5.695 9.33
*N *46:21 *C 4.085 3.73
*N *46:22 *C 4.085 3.73
*N *46:23 *C 4.085 3.73
*N *46:24 *C 6.555 2.89

*CAP
1 *42:ZN 0.0
2 *47:A2 0.0
3 *48:A1 0.008359594
4 *49:A2 0.0
5 *50:A 0.02370299
6 *46:6 0.024695
7 *46:7 0.03339753
8 *46:8 0.3035124
9 *46:9 0.1689096
10 *46:10 0.3733709
11 *46:11 0.06602911
12 *46:12 0.06610319
13 *46:13 0.003777938
14 *46:14 0.0173326
15 *46:15 0.05974358
16 *46:16 0.07613273
17 *46:17 0.0059591
18 *46:18 0.09473586
19 *46:19 0.06458941
20 *46:20 0.08350761
21 *46:21 0.1066426
22 *46:22 0.01223362
23 *46:23 0.03593661
24 *46:24 0.07002775

*RES
1 *46:6 *42:ZN 22.5
2 *46:7 *47:A2 22.5
3 *46:8 *46:9 22.5
4 *46:10 *46:11 22.5
5 *46:12 *46:13 22.5
6 *46:14 *48:A1 22.5
7 *46:15 *46:16 22.5
8 *46:17 *49:A2 22.5
9 *46:18 *46:17 22.5
10 *46:19 *46:20 22.5
11 *46:21 *46:22 22.5
12 *46:22 *46:23 22.5
13 *46:23 *50:A 0.9310064
14 *46:13 *46:14 0.1318904
15 *46:24 *46:6 0.5128052
16 *46:24 *46:16 1.935126
17 *46:16 *46:7 0.9311463
18 *46:21 *46:9 5.024823
19 *46:9 *46:15 2.464873
20 *46:18 *46:20 4.221449
21 *46:12 *46:11 2.766858
22 *46:8 *46:10 8.619473
23 *46:10 *46:19 1.928535

*END

*D_NET *51 0.2881824

*CONN
*I *52:A1 I *L 1861.193 *C 0.827 10.887
*I *53:ZN O *L 0.0 *D AND2_X1 *C 0.855 8.49
*N *51:3 *C 0.855 10.73
*N *51:4 *C 0.855 10.73
*N *51:5 *C 0.855 8.49
*N *51:6 *C 0.665 9.19
*N *51:7 *C 0.665 9.61
*N *51:8 *C 0.855 9.19
*N *51:9 *C 0.855 9.61

*CAP
1 *52:A1 0.007131562
2 *53:ZN 0.0
3 *51:3 0.05376209
4 *51:4 0.004547069
5 *51:5 0.04157493
6 *51:6 0.02962271
7 *51:7 0.02962271
8 *51:8 0.05486708
9 *51:9 0.06705424

*RES
1 *52:A1 *51:4 0.1493966
2 *51:3 *51:4 22.5
3 *51:5 *53:ZN 22.5
4 *51:6 *51:7 1.452732
5 *51:6 *51:8 0.5128052
6 *51:7 *51:9 0.5128052
7 *51:5 *51:8 2.077347
8 *51:9 *51:3 2.833605

*END

*D_NET *54 0.5696703

*CONN
*I *52:A2 I *L 1913.615 *C 0.475 10.87
*I *49:ZN O *L 0.0 *D AND2_X1 *C 4.845 9.89
*N *54:3 *C 0.475 10.87
*N *54:4 *C 0.665 9.89
*N *54:5 *C 0.665 9.89
*N *54:6 *C 4.845 9.89
*N *54:7 *C 4.845 9.89
*N *54:8 *C 0.665 10.87

*CAP
1 *52:A2 0.0
2 *49:ZN 0.008619371
3 *54:3 0.01539181
4 *54:4 0.1967524
5 *54:5 0.06018182
6 *54:6 0.1967524
7 *54:7 0.008619371
8 *54:8 0.08335321

*RES
1 *54:3 *52:A2 22.5
2 *54:4 *54:5 22.5
3 *54:6 *54:7 22.5
4 *54:7 *49:ZN 22.5
5 *54:3 *54:8 0.7961975
6 *54:5 *54:8 2.594164
7 *54:4 *54:6 9.959334

*END

*D_NET *55 0.3914116

*CONN
*I *52:ZN O *L 0.0 *D NOR2_X1 *C 0.665 11.29
*I *56:D I *L 1269.6 *C 1.235 13.67
*N *55:3 *C 0.665 11.29
*N *55:4 *C 0.665 11.29
*N *55:5 *C 1.235 11.29
*N *55:6 *C 1.235 11.29
*N *55:7 *C 1.235 13.67

*CAP
1 *52:ZN 0.0
2 *56:D 0.0
3 *55:3 0.009072986
4 *55:4 0.05378754
5 *55:5 0.03951949
6 *55:6 0.1432105
7 *55:7 0.1458211

*RES
1 *55:3 *52:ZN 22.5
2 *55:4 *55:3 22.5
3 *55:5 *55:6 22.5
4 *55:7 *56:D 22.5
5 *55:6 *55:7 6.045848
6 *55:4 *55:5 1.724316

*END

*D_NET *57 0.6891428

*CONN
*I *58:A1 I *L 1861.193 *C 5.197 5.287
*I *59:ZN O *L 0.0 *D AND3_X1 *C 5.035 6.11
*N *57:3 *C 5.225 5.13
*N *57:4 *C 5.225 5.13
*N *57:5 *C 5.225 5.13
*N *57:6 *C 6.535 5.13
*N *57:7 *C 6.535 5.13
*N *57:8 *C 6.535 6.11
*N *57:9 *C 6.535 6.11
*N *57:10 *C 5.035 6.11
*N *57:11 *C 5.035 6.11

*CAP
1 *58:A1 0.008276828
2 *59:ZN 0.01053146
3 *57:3 0.007226037
4 *57:4 0.005692334
5 *57:5 0.1322327
6 *57:6 0.0838676
7 *57:7 0.1197375
8 *57:8 0.0838676
9 *57:9 0.1135526
10 *57:10 0.1136266
11 *57:11 0.01053146

*RES
1 *58:A1 *57:4 0.1506179
2 *57:3 *57:4 22.5
3 *57:5 *57:3 22.5
4 *57:6 *57:7 22.5
5 *57:8 *57:9 22.5
6 *57:10 *57:11 22.5
7 *57:11 *59:ZN 22.5
8 *57:10 *57:9 5.757721
9 *57:5 *57:7 7.193662
10 *57:6 *57:8 2.05941

*END

*D_NET *60 0.01730642

*CONN
*I *58:A2 I *L 1913.615 *C 4.872 5.287
*I *61:ZN O *L 0.0 *D AND3_X1 *C 4.645 5.612

*CAP
1 *58:A2 0.008653209
2 *61:ZN 0.008653209

*RES
1 *61:ZN *58:A2 0.4174155

*END

*D_NET *62 0.6683343

*CONN
*I *58:ZN O *L 0.0 *D NOR2_X1 *C 5.035 5.69
*I *63:A3 I *L 1078.468 *C 5.605 6.53
*N *62:3 *C 5.605 6.53
*N *62:4 *C 5.035 6.53
*N *62:5 *C 5.035 6.53
*N *62:6 *C 4.085 6.53
*N *62:7 *C 4.085 6.53
*N *62:8 *C 5.035 5.69
*N *62:9 *C 4.085 5.69
*N *62:10 *C 5.035 7.09
*N *62:11 *C 5.605 7.09

*CAP
1 *58:ZN 0.0
2 *63:A3 0.0
3 *62:3 0.03606348
4 *62:4 0.0843085
5 *62:5 0.03925601
6 *62:6 0.0843085
7 *62:7 0.05462544
8 *62:8 0.07576159
9 *62:9 0.1381666
10 *62:10 0.07953139
11 *62:11 0.07631278

*RES
1 *62:3 *63:A3 22.5
2 *62:4 *62:5 22.5
3 *62:6 *62:7 22.5
4 *62:8 *58:ZN 22.5
5 *62:9 *62:8 2.627995
6 *62:9 *62:7 2.221008
7 *62:5 *62:10 1.27297
8 *62:10 *62:11 1.538416
9 *62:3 *62:11 1.654919
10 *62:6 *62:4 4.620344

*END

*D_NET *64 0.2914269

*CONN
*I *65:A1 I *L 1861.193 *C 7.505 6.53
*I *63:ZN O *L 0.0 *D AND3_X1 *C 5.985 6.53
*N *64:3 *C 7.505 6.53
*N *64:4 *C 7.505 6.53
*N *64:5 *C 5.985 6.53
*N *64:6 *C 5.985 6.53

*CAP
1 *65:A1 0.0
2 *63:ZN 0.02168385
3 *64:3 0.007195649
4 *64:4 0.1253284
5 *64:5 0.1155352
6 *64:6 0.02168385

*RES
1 *64:3 *65:A1 22.5
2 *64:4 *64:3 22.5
3 *64:5 *64:6 22.5
4 *64:6 *63:ZN 22.5
5 *64:5 *64:4 5.740484

*END

*D_NET *66 0.5393057

*CONN
*I *65:A2 I *L 1913.615 *C 7.125 6.53
*I *67:ZN O *L 0.0 *D NAND2_X1 *C 6.745 9.61
*N *66:3 *C 7.125 6.53
*N *66:4 *C 7.125 6.95
*N *66:5 *C 7.125 6.95
*N *66:6 *C 7.095 6.95
*N *66:7 *C 7.095 9.61
*N *66:8 *C 7.095 9.61
*N *66:9 *C 6.745 9.61
*N *66:10 *C 6.745 9.61

*CAP
1 *65:A2 0.0
2 *67:ZN 0.01217495
3 *66:3 0.0481308
4 *66:4 0.00851867
5 *66:5 0.04811775
6 *66:6 0.1776465
7 *66:7 0.1638586
8 *66:8 0.03430472
9 *66:9 0.03437879
10 *66:10 0.01217495

*RES
1 *66:3 *65:A2 22.5
2 *66:4 *66:5 22.5
3 *66:6 *66:4 22.5
4 *66:7 *66:8 22.5
5 *66:9 *66:10 22.5
6 *66:10 *67:ZN 22.5
7 *66:3 *66:5 1.347448
8 *66:9 *66:8 1.57802
9 *66:6 *66:7 5.175589

*END

*D_NET *68 0.7923837

*CONN
*I *65:ZN O *L 0.0 *D NOR2_X1 *C 7.315 6.81
*I *69:D I *L 1269.6 *C 12.255 8.07
*N *68:3 *C 7.315 6.81
*N *68:4 *C 7.315 6.81
*N *68:5 *C 12.255 6.81
*N *68:6 *C 12.255 6.81
*N *68:7 *C 12.255 8.07

*CAP
1 *65:ZN 0.0
2 *69:D 0.0
3 *68:3 0.008360397
4 *68:4 0.3191876
5 *68:5 0.3056321
6 *68:6 0.0782965
7 *68:7 0.08090708

*RES
1 *68:3 *65:ZN 22.5
2 *68:4 *68:3 22.5
3 *68:5 *68:6 22.5
4 *68:7 *69:D 22.5
5 *68:6 *68:7 2.8366
6 *68:4 *68:5 13.99255

*END

*D_NET *70 0.4421835

*CONN
*I *71:A1 I *L 1861.193 *C 4.655 8.07
*I *72:ZN O *L 0.0 *D AND3_X1 *C 7.315 8.07
*N *70:3 *C 4.655 8.07
*N *70:4 *C 4.655 8.07
*N *70:5 *C 7.315 8.07
*N *70:6 *C 7.315 8.07

*CAP
1 *71:A1 0.0
2 *72:ZN 0.01965048
3 *70:3 0.00688438
4 *70:4 0.20274
5 *70:5 0.1932581
6 *70:6 0.01965048

*RES
1 *70:3 *71:A1 22.5
2 *70:4 *70:3 22.5
3 *70:5 *70:6 22.5
4 *70:6 *72:ZN 22.5
5 *70:4 *70:5 8.210114

*END

*D_NET *73 0.2139154

*CONN
*I *71:A2 I *L 1913.615 *C 4.275 8.07
*I *74:ZN O *L 0.0 *D NAND4_X1 *C 3.135 8.07
*N *73:3 *C 4.275 8.07
*N *73:4 *C 4.275 8.07
*N *73:5 *C 3.135 8.07
*N *73:6 *C 3.135 8.07

*CAP
1 *71:A2 0.0
2 *74:ZN 0.0114635
3 *73:3 0.005917074
4 *73:4 0.09809173
5 *73:5 0.08697958
6 *73:6 0.0114635

*RES
1 *73:3 *71:A2 22.5
2 *73:4 *73:3 22.5
3 *73:5 *73:6 22.5
4 *73:6 *74:ZN 22.5
5 *73:5 *73:4 4.757678

*END

*D_NET *75 0.5372326

*CONN
*I *71:ZN O *L 0.0 *D NOR2_X1 *C 4.465 8.49
*I *76:D I *L 1269.6 *C 0.855 9.33
*N *75:3 *C 4.465 8.49
*N *75:4 *C 4.465 8.49
*N *75:5 *C 1.045 8.49
*N *75:6 *C 1.045 8.49
*N *75:7 *C 0.855 9.33
*N *75:8 *C 1.045 9.33

*CAP
1 *71:ZN 0.0
2 *76:D 0.0
3 *75:3 0.008269291
4 *75:4 0.1961241
5 *75:5 0.1826597
6 *75:6 0.05397724
7 *75:7 0.01722268
8 *75:8 0.07897948

*RES
1 *75:3 *71:ZN 22.5
2 *75:4 *75:3 22.5
3 *75:5 *75:6 22.5
4 *75:7 *76:D 22.5
5 *75:7 *75:8 0.7961975
6 *75:6 *75:8 1.893667
7 *75:5 *75:4 8.378509

*END

*D_NET *77 0.2238959

*CONN
*I *78:A1 I *L 1864.053 *C 2.755 10.87
*I *79:ZN O *L 0.0 *D AND2_X1 *C 4.085 10.59
*N *77:3 *C 2.755 10.87
*N *77:4 *C 2.755 10.59
*N *77:5 *C 2.755 10.59
*N *77:6 *C 4.085 10.59
*N *77:7 *C 4.085 10.59

*CAP
1 *78:A1 0.0
2 *79:ZN 0.010086
3 *77:3 0.03309099
4 *77:4 0.07007627
5 *77:5 0.03048041
6 *77:6 0.07007627
7 *77:7 0.010086

*RES
1 *77:3 *78:A1 22.5
2 *77:4 *77:5 22.5
3 *77:6 *77:7 22.5
4 *77:7 *79:ZN 22.5
5 *77:5 *77:3 0.3995648
6 *77:4 *77:6 3.569194

*END

*D_NET *80 0.4623348

*CONN
*I *78:A2 I *L 1844.203 *C 2.592 10.887
*I *81:ZN O *L 0.0 *D AND2_X1 *C 4.085 8.49
*N *80:3 *C 4.085 8.49
*N *80:4 *C 3.325 10.31
*N *80:5 *C 3.325 10.31
*N *80:6 *C 2.565 10.31
*N *80:7 *C 3.705 10.31
*N *80:8 *C 3.705 8.63
*N *80:9 *C 4.085 8.63

*CAP
1 *78:A2 0.03330998
2 *81:ZN 0.0
3 *80:3 0.01002421
4 *80:4 0.02641791
5 *80:5 0.05215754
6 *80:6 0.08805202
7 *80:7 0.1127187
8 *80:8 0.105381
9 *80:9 0.03427341

*RES
1 *80:3 *81:ZN 22.5
2 *80:4 *80:5 22.5
3 *80:6 *78:A2 1.585031
4 *80:6 *80:5 2.262899
5 *80:4 *80:7 0.8554825
6 *80:8 *80:7 3.944431
7 *80:8 *80:9 0.9122811
8 *80:3 *80:9 0.4191284

*END

*D_NET *82 0.8270163

*CONN
*I *78:A3 I *L 1885.075 *C 2.375 10.87
*I *83:ZN O *L 0.0 *D NAND4_X1 *C 2.54 5.647
*N *82:3 *C 2.375 10.87
*N *82:4 *C 2.375 10.73
*N *82:5 *C 2.375 10.73
*N *82:6 *C 1.775 10.73
*N *82:7 *C 1.775 10.73
*N *82:8 *C 1.775 5.69
*N *82:9 *C 1.775 5.69
*N *82:10 *C 2.375 5.69
*N *82:11 *C 2.375 5.69
*N *82:12 *C 2.375 5.69

*CAP
1 *78:A3 0.0
2 *83:ZN 0.02224874
3 *82:3 0.02272097
4 *82:4 0.04701821
5 *82:5 0.02270792
6 *82:6 0.2595087
7 *82:7 0.0443466
8 *82:8 0.2595087
9 *82:9 0.05021274
10 *82:10 0.05028681
11 *82:11 0.01310407
12 *82:12 0.03535281

*RES
1 *82:3 *78:A3 22.5
2 *82:4 *82:5 22.5
3 *82:6 *82:7 22.5
4 *82:8 *82:9 22.5
5 *82:10 *82:11 22.5
6 *82:11 *82:12 22.5
7 *82:12 *83:ZN 0.9559603
8 *82:5 *82:3 0.3995648
9 *82:9 *82:10 2.061649
10 *82:7 *82:4 2.1513
11 *82:8 *82:6 9.524965

*END

*D_NET *84 0.3824834

*CONN
*I *78:ZN O *L 0.0 *D NOR3_X1 *C 2.565 11.15
*I *85:D I *L 1269.6 *C 0.855 12.13
*N *84:3 *C 2.565 11.15
*N *84:4 *C 2.565 11.15
*N *84:5 *C 0.855 11.15
*N *84:6 *C 0.855 11.15
*N *84:7 *C 0.855 12.13

*CAP
1 *78:ZN 0.0
2 *85:D 0.0
3 *84:3 0.006968936
4 *84:4 0.1277752
5 *84:5 0.1156112
6 *84:6 0.06475878
7 *84:7 0.06736936

*RES
1 *84:3 *78:ZN 22.5
2 *84:4 *84:3 22.5
3 *84:5 *84:6 22.5
4 *84:7 *85:D 22.5
5 *84:6 *84:7 2.232187
6 *84:5 *84:4 5.492263

*END

*D_NET *86 0.3426572

*CONN
*I *47:A1 I *L 1861.193 *C 7.315 3.73
*I *87:ZN O *L 0.0 *D NOR3_X1 *C 5.415 4.01
*N *86:3 *C 5.415 4.01
*N *86:4 *C 5.415 4.01
*N *86:5 *C 7.315 4.01
*N *86:6 *C 7.315 4.01
*N *86:7 *C 7.315 3.73

*CAP
1 *47:A1 0.0
2 *87:ZN 0.0
3 *86:3 0.008996592
4 *86:4 0.1376705
5 *86:5 0.1260764
6 *86:6 0.03495036
7 *86:7 0.0349634

*RES
1 *86:3 *87:ZN 22.5
2 *86:4 *86:3 22.5
3 *86:5 *86:6 22.5
4 *86:7 *47:A1 22.5
5 *86:7 *86:6 0.8173522
6 *86:4 *86:5 5.041789

*END

*D_NET *88 0.6949839

*CONN
*I *47:ZN O *L 0.0 *D NOR2_X1 *C 7.125 4.01
*I *89:D I *L 1269.6 *C 12.255 3.73
*N *88:3 *C 7.125 4.01
*N *88:4 *C 7.125 4.15
*N *88:5 *C 7.125 4.15
*N *88:6 *C 12.255 4.15
*N *88:7 *C 12.255 4.15
*N *88:8 *C 12.255 3.73

*CAP
1 *47:ZN 0.0
2 *89:D 0.0
3 *88:3 0.006327746
4 *88:4 0.2981615
5 *88:5 0.003717166
6 *88:6 0.2981615
7 *88:7 0.04300268
8 *88:8 0.04561327

*RES
1 *88:3 *47:ZN 22.5
2 *88:4 *88:5 22.5
3 *88:6 *88:7 22.5
4 *88:8 *89:D 22.5
5 *88:5 *88:3 0.1318904
6 *88:8 *88:7 1.112302
7 *88:4 *88:6 15.52692

*END

*D_NET *90 0.2949296

*CONN
*I *87:A1 I *L 1864.053 *C 5.225 3.73
*I *91:ZN O *L 0.0 *D AND2_X1 *C 6.745 3.31
*N *90:3 *C 6.745 3.31
*N *90:4 *C 6.745 3.31
*N *90:5 *C 5.225 3.31
*N *90:6 *C 5.225 3.31
*N *90:7 *C 5.225 3.73

*CAP
1 *87:A1 0.0
2 *91:ZN 0.0
3 *90:3 0.008766542
4 *90:4 0.1102708
5 *90:5 0.09630916
6 *90:6 0.0397785
7 *90:7 0.03980459

*RES
1 *90:3 *91:ZN 22.5
2 *90:4 *90:3 22.5
3 *90:5 *90:6 22.5
4 *90:7 *87:A1 22.5
5 *90:6 *90:7 1.003471
6 *90:5 *90:4 3.994658

*END

*D_NET *92 0.3120788

*CONN
*I *87:A2 I *L 1844.203 *C 5.062 3.712
*I *93:ZN O *L 0.0 *D AND2_X1 *C 4.845 2.89
*N *92:3 *C 4.845 2.89
*N *92:4 *C 5.035 3.87
*N *92:5 *C 5.035 3.87
*N *92:6 *C 4.275 2.89
*N *92:7 *C 4.275 3.87

*CAP
1 *87:A2 0.007132708
2 *93:ZN 0.0
3 *92:3 0.04718281
4 *92:4 0.04988021
5 *92:5 0.004548215
6 *92:6 0.1003187
7 *92:7 0.1030161

*RES
1 *92:3 *93:ZN 22.5
2 *87:A2 *92:5 0.1493966
3 *92:4 *92:5 22.5
4 *92:6 *92:3 1.538416
5 *92:6 *92:7 2.421075
6 *92:7 *92:4 2.145685

*END

*D_NET *94 0.5434925

*CONN
*I *87:A3 I *L 1885.075 *C 4.845 3.73
*I *95:ZN O *L 0.0 *D AND2_X1 *C 4.085 2.89
*N *94:3 *C 4.845 3.73
*N *94:4 *C 4.845 3.45
*N *94:5 *C 4.845 3.45
*N *94:6 *C 5.695 3.45
*N *94:7 *C 5.695 3.45
*N *94:8 *C 5.695 2.89
*N *94:9 *C 5.695 2.89
*N *94:10 *C 4.085 2.89
*N *94:11 *C 4.085 2.89

*CAP
1 *87:A3 0.0
2 *95:ZN 0.0114801
3 *94:3 0.03928896
4 *94:4 0.07426036
5 *94:5 0.03667838
6 *94:6 0.05387484
7 *94:7 0.07418628
8 *94:8 0.05387484
9 *94:9 0.09284852
10 *94:10 0.09552012
11 *94:11 0.0114801

*RES
1 *94:3 *87:A3 22.5
2 *94:4 *94:5 22.5
3 *94:6 *94:7 22.5
4 *94:8 *94:9 22.5
5 *94:10 *94:11 22.5
6 *94:11 *95:ZN 22.5
7 *94:5 *94:3 0.4594814
8 *94:10 *94:9 4.035995
9 *94:4 *94:7 4.301124
10 *94:8 *94:6 1.286489

*END

*D_NET *96 3.542608

*CONN
*I *91:A1 I *L 1060.224 *C 6.175 3.73
*I *61:A3 I *L 1078.468 *C 4.275 5.27
*I *59:A2 I *L 1050.461 *C 4.465 6.53
*I *97:A I *L 1938.113 *C 1.805 3.73
*I *98:A I *L 1938.113 *C 7.315 10.87
*I *99:Q O *L 0.0 *D DFF_X1 *C 6.365 11.85
*I *100:A1 I *L 1861.193 *C 6.175 2.47
*I *101:A4 I *L 1855.86 *C 1.045 6.39
*I *102:A3 I *L 1059.898 *C 1.235 5.27
*I *103:A2 I *L 1077.17 *C 6.365 5.27
*I *104:A2 I *L 1077.17 *C 5.605 5.27
*I *105:A2 I *L 1077.17 *C 1.235 8.07
*I *36:A2 I *L 1092.433 *C 7.315 12.13
*I *72:A2 I *L 1050.461 *C 6.745 8.07
*N *96:15 *C 6.175 2.47
*N *96:16 *C 1.045 6.39
*N *96:17 *C 1.045 6.53
*N *96:18 *C 1.045 6.53
*N *96:19 *C 1.215 6.53
*N *96:20 *C 1.215 6.53
*N *96:21 *C 1.215 6.53
*N *96:22 *C 1.215 6.53
*N *96:23 *C 1.235 5.27
*N *96:24 *C 1.235 5.27
*N *96:25 *C 1.215 5.27
*N *96:26 *C 1.215 5.27
*N *96:27 *C 1.215 5.27
*N *96:28 *C 6.365 5.27
*N *96:29 *C 6.365 5.27
*N *96:30 *C 1.235 8.07
*N *96:31 *C 1.235 8.07
*N *96:32 *C 1.215 8.07
*N *96:33 *C 1.215 8.07
*N *96:34 *C 1.215 8.07
*N *96:35 *C 6.745 7.93
*N *96:36 *C 6.745 7.93
*N *96:37 *C 6.745 8.07
*N *96:38 *C 7.315 12.13
*N *96:39 *C 7.315 11.57
*N *96:40 *C 7.315 11.57
*N *96:41 *C 7.375 11.57
*N *96:42 *C 7.375 11.57
*N *96:43 *C 5.795 7.93
*N *96:44 *C 5.795 7.93
*N *96:45 *C 4.275 5.27
*N *96:46 *C 4.275 5.27
*N *96:47 *C 4.465 6.53
*N *96:48 *C 4.465 6.25
*N *96:49 *C 4.465 6.25
*N *96:50 *C 7.375 10.87
*N *96:51 *C 7.375 10.87
*N *96:52 *C 7.375 10.87
*N *96:53 *C 7.375 11.57
*N *96:54 *C 1.805 3.73
*N *96:55 *C 1.805 4.15
*N *96:56 *C 1.805 4.15
*N *96:57 *C 1.495 4.15
*N *96:58 *C 1.495 4.15
*N *96:59 *C 1.495 4.15
*N *96:60 *C 1.495 4.15
*N *96:61 *C 1.495 6.25
*N *96:62 *C 1.495 6.25
*N *96:63 *C 1.495 6.25
*N *96:64 *C 1.495 6.25
*N *96:65 *C 5.605 5.27
*N *96:66 *C 5.795 6.25
*N *96:67 *C 5.795 6.25
*N *96:68 *C 5.795 5.27
*N *96:69 *C 5.795 5.27
*N *96:70 *C 6.365 11.85
*N *96:71 *C 6.365 11.57
*N *96:72 *C 6.365 11.57
*N *96:73 *C 6.535 11.57
*N *96:74 *C 6.535 11.57
*N *96:75 *C 6.535 11.57
*N *96:76 *C 7.315 10.87
*N *96:77 *C 7.315 10.87
*N *96:78 *C 6.175 3.73
*N *96:79 *C 7.375 7.93
*N *96:80 *C 7.375 7.93
*N *96:81 *C 5.985 5.27
*N *96:82 *C 5.985 4.57
*N *96:83 *C 6.175 4.57
*N *96:84 *C 1.215 6.25

*CAP
1 *91:A1 0.0
2 *61:A3 0.0
3 *59:A2 0.0
4 *97:A 0.0
5 *98:A 0.0
6 *99:Q 0.0
7 *100:A1 0.0
8 *101:A4 0.0
9 *102:A3 0.0
10 *103:A2 0.0
11 *104:A2 0.0
12 *105:A2 0.0
13 *36:A2 0.0
14 *72:A2 0.0
15 *96:15 0.07272102
16 *96:16 0.01783445
17 *96:17 0.01578019
18 *96:18 0.01522387
19 *96:19 0.005847988
20 *96:20 0.01570611
21 *96:21 0.0178498
22 *96:22 0.06431877
23 *96:23 0.007136465
24 *96:24 0.02086786
25 *96:25 0.01965345
26 *96:26 0.0178498
27 *96:27 0.03208841
28 *96:28 0.007226037
29 *96:29 0.05206698
30 *96:30 0.007926213
31 *96:31 0.02229555
32 *96:32 0.01864661
33 *96:33 0.01559534
34 *96:34 0.05725468
35 *96:35 0.1329973
36 *96:36 0.02036211
37 *96:37 0.02297269
38 *96:38 0.05749959
39 *96:39 0.007556586
40 *96:40 0.05488901
41 *96:41 0.02010125
42 *96:42 0.05822321
43 *96:43 0.07950912
44 *96:44 0.1127352
45 *96:45 0.00771721
46 *96:46 0.113712
47 *96:47 0.04173315
48 *96:48 0.2795889
49 *96:49 0.03912257
50 *96:50 0.001568852
51 *96:51 0.1954438
52 *96:52 0.04148861
53 *96:53 0.03307507
54 *96:54 0.04368946
55 *96:55 0.02316028
56 *96:56 0.04107887
57 *96:57 0.006277909
58 *96:58 0.02308621
59 *96:59 0.01578962
60 *96:60 0.06066981
61 *96:61 0.0592373
62 *96:62 0.005260122
63 *96:63 0.02034409
64 *96:64 0.1868356
65 *96:65 0.01523743
66 *96:66 0.1010457
67 *96:67 0.171083
68 *96:68 0.1456407
69 *96:69 0.08356018
70 *96:70 0.03833284
71 *96:71 0.01395835
72 *96:72 0.03572226
73 *96:73 0.008620102
74 *96:74 0.01388428
75 *96:75 0.05962085
76 *96:76 0.006533023
77 *96:77 0.01737846
78 *96:78 0.1162904