*SPEF "1481-1998"
*DESIGN "s400"
*DATE "Fri Aug  1 15:46:10 2014"
*VENDOR "Synopsys, Inc."
*PROGRAM "icc_shell"
*VERSION "G-2012.06-ICC-SP5"
*DESIGN_FLOW "PIN_CAP NONE"
*DIVIDER /
*DELIMITER :
*BUS_DELIMITER [ ]
*T_UNIT 1 NS
*C_UNIT 1 FF
*R_UNIT 1 OHM
*L_UNIT 1 HENRY

*NAME_MAP
*1 TEST
*2 FM
*3 CK
*4 VDD
*5 VSS
*6 RED1
*7 YLW1
*8 GRN1
*9 RED2
*10 YLW2
*11 GRN2
*12 Phi1H
*13 CLR
*14 R2CVAD2NF
*15 NOR2_9
*16 AND2_6
*17 R2CVAD1NF
*18 AND3_3
*19 R2C
*20 DFF_4
*21 Y1CVAD2NF
*22 NOR2_8
*23 AND2_5
*24 Y1CVAD1NF
*25 AND3_2
*26 Y1C
*27 DFF_3
*28 TCOMBVNODE8
*29 NOR2_7
*30 NAND4_1
*31 TCOMB_GA1VAD1NF
*32 AND2_4
*33 TCOMB_GA1
*34 DFF_7
*35 TCOMBVNODE12
*36 NOR2_6
*37 NAND4_0
*38 TCOMBVNQA
*39 NAND2_28
*40 NAND3_1
*41 OR4_3
*42 AND3_1
*43 NOT_46
*44 TCOMB_YA2
*45 DFF_2
*46 extra3
*47 NOR4_3
*48 NOR4_3_A
*49 C3_Q1
*50 AND3_0
*51 NOT_45
*52 NOT_28
*53 DFF_11
*54 NOR3_2
*55 NAND2_7
*56 OR3_1
*57 OR4_1
*58 OR2_6
*59 TCOMBVNODE15
*60 CLRB
*61 OR2_16
*62 OR2_15
*63 NOT_54
*64 NOT_49
*65 NOT_7
*66 NOT_3
*67 NOR3_11
*68 NOR3_10
*69 NOR3_6
*70 NOR3_5
*71 NOR3_4
*72 NOR3_3
*73 OR4_2
*74 OR3_0
*75 NOR2_5
*76 NOR3_19
*77 NOR3_18
*78 NOR3_17
*79 NOR3_16
*80 NOR3_13
*81 NOR3_12
*82 TCOMBVNFM
*83 NAND4_2
*84 OR2_17
*85 NOT_47
*86 TCOMBVNQC
*87 OR4_0
*88 NOT_44
*89 extra2
*90 NOR4_2
*91 NOR4_2_A
*92 TCOMB_GA2VAD1NF
*93 TCOMB_GA2
*94 DFF_6
*95 TCOMB_GA2VAD4NF
*96 AND2_2
*97 TCOMB_GA2VAD3NF
*98 AND2_3
*99 TCOMB_GA2VAD2NF
*100 TCOMBVNFEL
*101 NOT_48
*102 TCOMBVNODE19
*103 NAND2_24
*104 UC_11VZ
*105 NOT_40
*106 C1_CO
*107 NOR2_4
*108 NOR2_0
*109 UC_11VD
*110 DFF_20
*111 UC_10VZ
*112 NAND2_22
*113 UC_10VD
*114 DFF_19
*115 UC_9VZ
*116 NAND2_20
*117 UC_9VD
*118 DFF_18
*119 UC_8VZ
*120 NAND2_18
*121 UC_8VD
*122 DFF_17
*123 UC_9
*124 NOR3_15
*125 NAND2_21
*126 OR2_13
*127 NOT_38
*128 UC_10
*129 NAND2_23
*130 OR2_14
*131 NOT_39
*132 UC_11
*133 NOT_42
*134 NOT_41
*135 C1VCIIA
*136 UC_12
*137 NOT_37
*138 UC_14
*139 NOR2_3
*140 NOR3_14
*141 UC_15
*142 NOT_36
*143 C1VCO1
*144 UC_13
*145 C1VCO2
*146 NAND2_19
*147 OR2_12
*148 UC_19VZ
*149 NAND2_16
*150 C2_CO
*151 NOR3_8
*152 NOT_25
*153 UC_19VD
*154 DFF_16
*155 UC_18VZ
*156 NAND2_14
*157 UC_18VD
*158 DFF_15
*159 UC_17VZ
*160 NAND2_12
*161 UC_17VD
*162 DFF_14
*163 UC_16VZ
*164 NAND2_10
*165 UC_16VD
*166 DFF_13
*167 CTST
*168 NOR2_2
*169 NOR3_7
*170 NOR4_1_A
*171 NOT_35
*172 UC_22
*173 NOR4_1
*174 NOT_34
*175 C2VCO0
*176 NAND2_15
*177 OR2_10
*178 UC_17
*179 NOR3_9
*180 NAND2_13
*181 OR2_9
*182 NOT_32
*183 UC_18
*184 NOT_33
*185 UC_19
*186 NAND2_17
*187 OR2_11
*188 C2VCIIA
*189 UC_20
*190 NOT_31
*191 UC_21
*192 C2VCO1
*193 extra1
*194 C2VCO2
*195 NAND2_11
*196 OR2_8
*197 C2_QN2
*198 C3_Q0VZ
*199 NAND2_8
*200 UC_27
*201 NOR3_1
*202 C3_Q0VD
*203 DFF_12
*204 C3_Q1VZ
*205 NAND2_6
*206 C3_Q1VD
*207 C3_Q2VZ
*208 NAND2_4
*209 C3_Q2VD
*210 DFF_10
*211 C3_Q3VZ
*212 NAND2_2
*213 C3_Q3VD
*214 DFF_9
*215 CO2
*216 NOR2_1
*217 NOR3_0
*218 NOR4_0_A
*219 NOT_30
*220 UC_26
*221 NOR4_0
*222 NOT_29
*223 C3VCO0
*224 C3_Q2
*225 NOT_27
*226 NAND2_5
*227 OR3_2
*228 OR2_5
*229 C3_Q0
*230 NAND2_25
*231 NAND2_9
*232 OR2_7
*233 C3VCIIA
*234 UC_23
*235 NOT_26
*236 UC_25
*237 C3VCO1
*238 extra0
*239 C3VCO2
*240 NAND2_3
*241 OR2_4
*242 UC_24
*243 TESTL
*244 OR2_1
*245 NOT_2
*246 DFF_0
*247 TCOMBVNQD
*248 NOT_43
*249 TCOMBVNQB
*250 TCOMBVNODE6
*251 TCOMBVNCLR
*252 NAND3_2
*253 TCOMB_RA1VOR2NF
*254 TCOMB_RA1VOR1NF
*255 TCOMB_RA1
*256 DFF_5
*257 TCOMBVNODE8VOR2NF
*258 TCOMBVNODE8VOR1NF
*259 TCOMBVNODE16
*260 NAND2_29
*261 NAND2_27
*262 TCOMBVNODE14
*263 TCOMB_FE
*264 NOT_24
*265 NOT_22
*266 TCOMBVNODE3
*267 TCOMB_YA1
*268 TCOMBVNODE4
*269 NAND2_26
*270 TCOMBVNODE4VOR2NF
*271 TCOMBVNODE4VOR1NF
*272 TCOMB_RA2VOR3NF
*273 NAND3_0
*274 TCOMB_RA2VOR2NF
*275 TCOMB_RA2VOR1NF
*276 TCOMB_RA2
*277 TCOMBVNODE18
*278 TCOMBVNODE16VOR1NF
*279 C1VCO0
*280 UC_10VUC_0
*281 UC_10VZVOR1NF
*282 UC_9VUC_0
*283 UC_9VZVOR1NF
*284 UC_8
*285 UC_8VUC_0
*286 UC_8VZVOR1NF
*287 C2VIINHN
*288 UC_19VUC_0
*289 UC_19VZVOR1NF
*290 UC_18VUC_0
*291 UC_18VZVOR1NF
*292 UC_17VUC_0
*293 UC_17VZVOR1NF
*294 UC_16
*295 UC_16VUC_0
*296 UC_16VZVOR1NF
*297 C3VIINHN
*298 C3_Q0VUC_0
*299 C3_Q0VZVOR1NF
*300 C3_Q1VUC_0
*301 C3_Q1VZVOR1NF
*302 C3_Q2VUC_0
*303 C3_Q2VZVOR1NF
*304 C3_Q3
*305 C3_Q3VUC_0
*306 C3_Q3VZVOR1NF
*307 FMLVIINMUXVOR2NF
*308 NAND2_1
*309 OR2_2
*310 FMLVIINMUXVOR1NF
*311 OR2_3
*312 FMLVIINMUXVND1
*313 NOT_5
*314 TESTLVIINMUXVOR2NF
*315 NAND2_0
*316 OR2_0
*317 TESTLVIINMUXVOR1NF
*318 TESTLVIINMUXVND1
*319 NOT_1
*320 OLATCH_FEL
*321 DFF_8
*322 FML
*323 NOT_6
*324 DFF_1
*325 FMB
*326 NOT_52
*327 NOT_4
*328 FMLVIINMUXVIIR1
*329 FMLVIINLATCHN
*330 TESTB
*331 NOT_50
*332 NOT_0
*333 TESTLVIINMUXVIIR1
*334 TESTLVIINLATCHN
*335 FEN
*336 FMLVIINLATCHVCDN
*337 AND2_1
*338 FMLVIINMUX
*339 FMLVIINLATCHVCDAD
*340 TESTLVIINLATCHVCDN
*341 AND2_0
*342 TESTLVIINMUX
*343 TESTLVIINLATCHVCDAD
*344 NOT_57
*345 NOT_55
*346 CLRBVIIR1
*347 NOT_53
*348 FMBVIIR1
*349 NOT_51
*350 TESTBVIIR1
*351 UC_11VUC_0
*352 II84
*353 NOT_23
*354 TCOMB_FE_BF
*355 OLATCHVUC_5
*356 NOT_21
*357 OLATCH_R2L
*358 NOT_13
*359 OLATCHVUC_6
*360 NOT_20
*361 OLATCH_Y1L
*362 NOT_11
*363 OLATCH_G1L
*364 NOT_19
*365 OUTBUFVBUFG1VIIR1
*366 NOT_18
*367 OLATCH_G2L
*368 NOT_17
*369 OUTBUFVBUFG2VIIR1
*370 NOT_16
*371 OLATCH_R1L
*372 NOT_15
*373 OUTBUFVBUFR1VIIR1
*374 NOT_14
*375 OUTBUFVBUFR2VIIR1
*376 NOT_12
*377 OUTBUFVBUFY1VIIR1
*378 NOT_10
*379 OLATCH_Y2L
*380 NOT_9
*381 OUTBUFVBUFY2VIIR1
*382 NOT_8

*PORTS
*1 I *L 0.0 *S 0.0 0.0
*2 I *L 0.0 *S 0.0 0.0
*3 I *L 0.0 *S 0.0 0.0
*4 I *L 0.0 *S 0.0 0.0
*5 I *L 0.0 *S 0.0 0.0
*6 O *L 0.0 *S 0.0 0.0
*7 O *L 0.0 *S 0.0 0.0
*8 O *L 0.0 *S 0.0 0.0
*9 O *L 0.0 *S 0.0 0.0
*10 O *L 0.0 *S 0.0 0.0
*11 O *L 0.0 *S 0.0 0.0
*12 I *L 0.0 *S 0.0 0.0
*13 I *L 0.0 *S 0.0 0.0

*D_NET *14 0.3413844

*CONN
*I *15:A1 I *L 1861.193 *C 7.295 13.6
*I *16:ZN O *L 0.0 *D AND2_X1 *C 5.415 13.39
*N *14:3 *C 7.295 13.6
*N *14:4 *C 7.295 13.39
*N *14:5 *C 7.295 13.39
*N *14:6 *C 5.415 13.39
*N *14:7 *C 5.415 13.39

*CAP
1 *15:A1 0.0
2 *16:ZN 0.01078136
3 *14:3 0.03103607
4 *14:4 0.13018
5 *14:5 0.02842549
6 *14:6 0.13018
7 *14:7 0.01078136

*RES
1 *14:3 *15:A1 22.5
2 *14:4 *14:5 22.5
3 *14:6 *14:7 22.5
4 *14:7 *16:ZN 22.5
5 *14:5 *14:3 0.7096677
6 *14:6 *14:4 6.428887

*END

*D_NET *17 0.01811132

*CONN
*I *15:A2 I *L 1913.615 *C 6.962 13.687
*I *18:ZN O *L 0.0 *D AND3_X1 *C 6.735 14.012

*CAP
1 *15:A2 0.00905566
2 *18:ZN 0.00905566

*RES
1 *18:ZN *15:A2 0.4269302

*END

*D_NET *19 0.6415753

*CONN
*I *15:ZN O *L 0.0 *D NOR2_X1 *C 7.125 14.09
*I *20:D I *L 1269.6 *C 10.735 16.47
*N *19:3 *C 7.125 14.09
*N *19:4 *C 7.125 15.77
*N *19:5 *C 7.125 15.77
*N *19:6 *C 10.735 15.77
*N *19:7 *C 10.735 15.77
*N *19:8 *C 10.735 16.47

*CAP
1 *15:ZN 0.0
2 *20:D 0.0
3 *19:3 0.120004
4 *19:4 0.1560514
5 *19:5 0.1173934
6 *19:6 0.1560514
7 *19:7 0.04473224
8 *19:8 0.04734281

*RES
1 *19:3 *15:ZN 22.5
2 *19:4 *19:5 22.5
3 *19:6 *19:7 22.5
4 *19:8 *20:D 22.5
5 *19:3 *19:5 5.162433
6 *19:7 *19:8 1.575889
7 *19:4 *19:6 8.649124

*END

*D_NET *21 0.1872954

*CONN
*I *22:A1 I *L 1861.193 *C 3.705 13.67
*I *23:ZN O *L 0.0 *D AND2_X1 *C 4.465 13.95
*N *21:3 *C 3.705 13.67
*N *21:4 *C 3.705 13.95
*N *21:5 *C 3.705 13.95
*N *21:6 *C 4.465 13.95
*N *21:7 *C 4.465 13.95

*CAP
1 *22:A1 0.0
2 *23:ZN 0.009985285
3 *21:3 0.03182345
4 *21:4 0.05314426
5 *21:5 0.0318104
6 *21:6 0.05054672
7 *21:7 0.009985285

*RES
1 *21:3 *22:A1 22.5
2 *21:4 *21:5 22.5
3 *21:6 *21:7 22.5
4 *21:7 *23:ZN 22.5
5 *21:3 *21:5 0.7594828
6 *21:4 *21:6 2.480554

*END

*D_NET *24 0.01676615

*CONN
*I *22:A2 I *L 1913.615 *C 3.352 13.687
*I *25:ZN O *L 0.0 *D AND3_X1 *C 3.125 14.012

*CAP
1 *22:A2 0.008383075
2 *25:ZN 0.008383075

*RES
1 *25:ZN *22:A2 0.4282471

*END

*D_NET *26 0.7144396

*CONN
*I *22:ZN O *L 0.0 *D NOR2_X1 *C 3.515 14.09
*I *27:D I *L 1269.6 *C 5.795 16.47
*N *26:3 *C 3.515 14.09
*N *26:4 *C 3.515 14.09
*N *26:5 *C 6.255 14.09
*N *26:6 *C 6.255 14.09
*N *26:7 *C 6.255 15.21
*N *26:8 *C 6.255 15.21
*N *26:9 *C 5.795 15.21
*N *26:10 *C 5.795 15.21
*N *26:11 *C 5.795 16.47

*CAP
1 *22:ZN 0.0
2 *27:D 0.0
3 *26:3 0.007506234
4 *26:4 0.166044
5 *26:5 0.07893304
6 *26:6 0.1532687
7 *26:7 0.07893304
8 *26:8 0.03306307
9 *26:9 0.03313714
10 *26:10 0.08047189
11 *26:11 0.08308247

*RES
1 *26:3 *22:ZN 22.5
2 *26:4 *26:3 22.5
3 *26:5 *26:6 22.5
4 *26:7 *26:8 22.5
5 *26:9 *26:10 22.5
6 *26:11 *27:D 22.5
7 *26:10 *26:11 2.846077
8 *26:4 *26:6 7.94813
9 *26:9 *26:8 1.384914
10 *26:5 *26:7 2.233512

*END

*D_NET *28 0.3185188

*CONN
*I *29:A1 I *L 1861.193 *C 5.035 12.13
*I *30:ZN O *L 0.0 *D NAND4_X1 *C 5.925 11.29
*N *28:3 *C 5.035 12.13
*N *28:4 *C 5.035 11.85
*N *28:5 *C 5.035 11.85
*N *28:6 *C 4.655 11.85
*N *28:7 *C 4.655 11.85
*N *28:8 *C 5.925 11.29
*N *28:9 *C 4.655 11.29

*CAP
1 *29:A1 0.0
2 *30:ZN 0.0
3 *28:3 0.02819053
4 *28:4 0.02695329
5 *28:5 0.02557995
6 *28:6 0.02695329
7 *28:7 0.03072252
8 *28:8 0.07080857
9 *28:9 0.1093106

*RES
1 *28:3 *29:A1 22.5
2 *28:4 *28:5 22.5
3 *28:6 *28:7 22.5
4 *28:8 *30:ZN 22.5
5 *28:9 *28:7 1.26669
6 *28:9 *28:8 3.090097
7 *28:5 *28:3 0.3947522
8 *28:6 *28:4 1.23266

*END

*D_NET *31 0.2354766

*CONN
*I *29:A2 I *L 1913.615 *C 4.655 12.13
*I *32:ZN O *L 0.0 *D AND2_X1 *C 6.175 12.13
*N *31:3 *C 4.655 12.13
*N *31:4 *C 4.655 12.13
*N *31:5 *C 6.175 12.13
*N *31:6 *C 6.175 12.13

*CAP
1 *29:A2 0.0
2 *32:ZN 0.01007782
3 *31:3 0.005484649
4 *31:4 0.110258
5 *31:5 0.09957831
6 *31:6 0.01007782

*RES
1 *31:3 *29:A2 22.5
2 *31:4 *31:3 22.5
3 *31:5 *31:6 22.5
4 *31:6 *32:ZN 22.5
5 *31:4 *31:5 5.827204

*END

*D_NET *33 0.9036587

*CONN
*I *29:ZN O *L 0.0 *D NOR2_X1 *C 4.845 12.55
*I *34:D I *L 1269.6 *C 1.045 14.93
*N *33:3 *C 1.045 14.93
*N *33:4 *C 0.665 13.25
*N *33:5 *C 0.665 13.25
*N *33:6 *C 4.845 13.25
*N *33:7 *C 4.845 13.25
*N *33:8 *C 4.845 12.55
*N *33:9 *C 0.665 14.93

*CAP
1 *29:ZN 0.009232323
2 *34:D 0.0
3 *33:3 0.0286934
4 *33:4 0.2699443
5 *33:5 0.07811659
6 *33:6 0.2699443
7 *33:7 0.05935546
8 *33:8 0.07378286
9 *33:9 0.1145895

*RES
1 *33:3 *34:D 22.5
2 *33:4 *33:5 22.5
3 *33:6 *33:7 22.5
4 *33:8 *29:ZN 22.5
5 *33:5 *33:9 3.915419
6 *33:9 *33:3 0.8827993
7 *33:8 *33:7 2.190765
8 *33:4 *33:6 15.20798

*END

*D_NET *35 0.9672938

*CONN
*I *36:A1 I *L 1861.193 *C 0.827 12.112
*I *37:ZN O *L 0.0 *D NAND4_X1 *C 7.29 11.247
*N *35:3 *C 1.045 12.13
*N *35:4 *C 1.045 12.13
*N *35:5 *C 1.045 11.29
*N *35:6 *C 1.045 11.29
*N *35:7 *C 7.125 11.29
*N *35:8 *C 7.125 11.29
*N *35:9 *C 7.125 11.29

*CAP
1 *36:A1 0.01379283
2 *37:ZN 0.02150585
3 *35:3 0.06687275
4 *35:4 0.01120834
5 *35:5 0.3721549
6 *35:6 0.06426216
7 *35:7 0.3747525
8 *35:8 0.01061933
9 *35:9 0.03212517

*RES
1 *35:3 *35:4 22.5
2 *35:5 *35:6 22.5
3 *35:7 *35:8 22.5
4 *35:8 *35:9 22.5
5 *36:A1 *35:4 0.5968882
6 *35:9 *37:ZN 0.9294702
7 *35:6 *35:3 2.154139
8 *35:5 *35:7 20.56792

*END

*D_NET *38 1.740641

*CONN
*I *36:A2 I *L 1913.615 *C 0.475 12.13
*I *39:A2 I *L 1883.517 *C 1.425 12.13
*I *40:A3 I *L 1861.175 *C 3.525 12.13
*I *41:A1 I *L 975.4661 *C 8.455 11.01
*I *42:A1 I *L 1014.711 *C 7.505 13.67
*I *43:ZN O *L 0.0 *D INV_X1 *C 4.655 10.31
*N *38:7 *C 0.475 12.13
*N *38:8 *C 0.475 12.13
*N *38:9 *C 1.425 12.13
*N *38:10 *C 1.425 12.13
*N *38:11 *C 7.505 13.67
*N *38:12 *C 7.505 13.67
*N *38:13 *C 7.375 13.67
*N *38:14 *C 7.375 13.67
*N *38:15 *C 7.375 11.01
*N *38:16 *C 7.375 11.01
*N *38:17 *C 4.655 10.31
*N *38:18 *C 4.655 10.31
*N *38:19 *C 4.575 10.31
*N *38:20 *C 4.575 11.01
*N *38:21 *C 4.575 11.01
*N *38:22 *C 3.735 12.13
*N *38:23 *C 3.735 12.13
*N *38:24 *C 3.735 11.01
*N *38:25 *C 3.735 11.01
*N *38:26 *C 3.525 12.13
*N *38:27 *C 3.525 12.13
*N *38:28 *C 8.265 11.01
*N *38:29 *C 8.265 11.01
*N *38:30 *C 8.455 11.01

*CAP
1 *36:A2 0.0
2 *39:A2 0.0
3 *40:A3 0.0
4 *41:A1 0.009298186
5 *42:A1 0.0
6 *43:ZN 0.0
7 *38:7 0.00588296
8 *38:8 0.05144579
9 *38:9 0.00588296
10 *38:10 0.1521436
11 *38:11 0.01864292
12 *38:12 0.03153435
13 *38:13 0.1354471
14 *38:14 0.007622288
15 *38:15 0.1354471
16 *38:16 0.2590709
17 *38:17 0.009229337
18 *38:18 0.02205277
19 *38:19 0.07476166
20 *38:20 0.06186415
21 *38:21 0.2479724
22 *38:22 0.0817206
23 *38:23 0.01191095
24 *38:24 0.0817206
25 *38:25 0.05431738
26 *38:26 0.01060709
27 *38:27 0.1284849
28 *38:28 0.06548991
29 *38:29 0.03179861
30 *38:30 0.04629187

*RES
1 *38:7 *36:A2 22.5
2 *38:8 *38:7 22.5
3 *38:9 *39:A2 22.5
4 *38:10 *38:9 22.5
5 *38:11 *42:A1 22.5
6 *38:12 *38:11 22.5
7 *38:13 *38:14 22.5
8 *38:15 *38:16 22.5
9 *38:17 *43:ZN 22.5
10 *38:18 *38:17 22.5
11 *38:19 *38:18 22.5
12 *38:20 *38:21 22.5
13 *38:22 *38:23 22.5
14 *38:24 *38:25 22.5
15 *38:26 *40:A3 22.5
16 *38:27 *38:26 22.5
17 *38:28 *38:29 22.5
18 *38:30 *41:A1 22.5
19 *38:29 *38:30 0.2420579
20 *38:8 *38:10 2.3515
21 *38:10 *38:27 5.436747
22 *38:27 *38:23 0.7572634
23 *38:25 *38:21 2.667178
24 *38:21 *38:16 9.089185
25 *38:16 *38:28 3.193319
26 *38:14 *38:12 0.3827091
27 *38:24 *38:22 2.298535
28 *38:19 *38:20 1.489008
29 *38:15 *38:13 4.988642

*END

*D_NET *44 0.1478505

*CONN
*I *36:ZN O *L 0.0 *D NOR2_X1 *C 0.665 11.71
*I *45:D I *L 1269.6 *C 0.855 10.87
*N *44:3 *C 0.665 11.71
*N *44:4 *C 0.855 10.87
*N *44:5 *C 0.855 11.71

*CAP
1 *36:ZN 0.0
2 *45:D 0.0
3 *44:3 0.02224771
4 *44:4 0.04909303
5 *44:5 0.07650973

*RES
1 *44:3 *36:ZN 22.5
2 *44:4 *45:D 22.5
3 *44:3 *44:5 0.4844952
4 *44:4 *44:5 2.340451

*END

*D_NET *46 0.4269633

*CONN
*I *47:A1 I *L 1861.193 *C 2.375 12.13
*I *48:ZN O *L 0.0 *D NOR3_X1 *C 3.895 11.15
*N *46:3 *C 3.895 11.15
*N *46:4 *C 3.705 11.43
*N *46:5 *C 3.705 11.43
*N *46:6 *C 2.375 11.43
*N *46:7 *C 2.375 11.43
*N *46:8 *C 2.375 12.13
*N *46:9 *C 3.705 11.15

*CAP
1 *47:A1 0.0
2 *48:ZN 0.0
3 *46:3 0.02657297
4 *46:4 0.09829364
5 *46:5 0.01939962
6 *46:6 0.09829364
7 *46:7 0.06531259
8 *46:8 0.06533867
9 *46:9 0.05375215

*RES
1 *46:3 *48:ZN 22.5
2 *46:4 *46:5 22.5
3 *46:6 *46:7 22.5
4 *46:8 *47:A1 22.5
5 *46:7 *46:8 2.02329
6 *46:9 *46:3 0.5128052
7 *46:9 *46:5 0.4362878
8 *46:6 *46:4 4.734725

*END

*D_NET *49 3.23208

*CONN
*I *50:A2 I *L 1050.461 *C 7.695 10.87
*I *51:A I *L 1938.113 *C 5.605 6.53
*I *52:A I *L 1938.113 *C 2.565 8.07
*I *53:Q O *L 0.0 *D DFF_X1 *C 9.025 6.81
*I *47:A2 I *L 1913.615 *C 1.995 12.13
*I *54:A2 I *L 1844.203 *C 5.415 5.27
*I *37:A4 I *L 1855.86 *C 6.555 10.87
*I *55:A2 I *L 1883.517 *C 3.515 6.53
*I *41:A2 I *L 1014.768 *C 8.645 10.87
*I *56:A2 I *L 1033.271 *C 4.845 9.33
*I *57:A2 I *L 1014.768 *C 8.075 8.07
*I *58:A2 I *L 1077.17 *C 4.465 6.53
*N *49:13 *C 5.415 5.27
*N *49:14 *C 5.415 5.41
*N *49:15 *C 5.415 5.41
*N *49:16 *C 4.085 5.41
*N *49:17 *C 4.085 5.41
*N *49:18 *C 4.085 6.81
*N *49:19 *C 4.085 6.81
*N *49:20 *C 6.555 10.87
*N *49:21 *C 6.555 10.73
*N *49:22 *C 6.555 10.73
*N *49:23 *C 7.695 10.73
*N *49:24 *C 7.695 10.73
*N *49:25 *C 1.995 12.13
*N *49:26 *C 8.645 10.87
*N *49:27 *C 8.645 10.73
*N *49:28 *C 8.645 10.73
*N *49:29 *C 4.465 6.53
*N *49:30 *C 4.465 6.81
*N *49:31 *C 4.465 6.81
*N *49:32 *C 2.565 8.07
*N *49:33 *C 5.605 6.53
*N *49:34 *C 5.605 6.81
*N *49:35 *C 5.605 6.81
*N *49:36 *C 9.025 6.81
*N *49:37 *C 9.025 6.81
*N *49:38 *C 2.565 6.81
*N *49:39 *C 2.565 6.81
*N *49:40 *C 7.695 9.19
*N *49:41 *C 7.695 9.19
*N *49:42 *C 4.845 9.19
*N *49:43 *C 4.845 9.19
*N *49:44 *C 4.845 9.33
*N *49:45 *C 7.695 6.81
*N *49:46 *C 7.695 6.81
*N *49:47 *C 3.515 6.53
*N *49:48 *C 3.515 6.81
*N *49:49 *C 3.515 6.81
*N *49:50 *C 7.695 10.87
*N *49:51 *C 8.075 8.07
*N *49:52 *C 2.185 12.13
*N *49:53 *C 2.185 9.89
*N *49:54 *C 2.565 9.89
*N *49:55 *C 7.695 8.35
*N *49:56 *C 8.075 8.35

*CAP
1 *50:A2 0.0
2 *51:A 0.0
3 *52:A 0.0
4 *53:Q 0.0
5 *47:A2 0.0
6 *54:A2 0.0
7 *37:A4 0.0
8 *55:A2 0.0
9 *41:A2 0.0
10 *56:A2 0.0
11 *57:A2 0.0
12 *58:A2 0.0
13 *49:13 0.01719297
14 *49:14 0.1131217
15 *49:15 0.01458239
16 *49:16 0.1131217
17 *49:17 0.0923645
18 *49:18 0.04472035
19 *49:19 0.0923645
20 *49:20 0.006916237
21 *49:21 0.0826414
22 *49:22 0.004305657
23 *49:23 0.1620512
24 *49:24 0.1114346
25 *49:25 0.01732177
26 *49:26 0.00437156
27 *49:27 0.07421473
28 *49:28 0.006943009
29 *49:29 0.03472644
30 *49:30 0.06363009
31 *49:31 0.03211585
32 *49:32 0.1697821
33 *49:33 0.0348153
34 *49:34 0.1387653
35 *49:35 0.03220472
36 *49:36 0.006376518
37 *49:37 0.07838503
38 *49:38 0.05105402
39 *49:39 0.07045799
40 *49:40 0.2188347
41 *49:41 0.1458669
42 *49:42 0.2214322
43 *49:43 0.006896412
44 *49:44 0.004324962
45 *49:45 0.1619148
46 *49:46 0.08373703
47 *49:47 0.0259183
48 *49:48 0.08360081
49 *49:49 0.02590526
50 *49:50 0.003563546
51 *49:51 0.009682913
52 *49:52 0.1249837
53 *49:53 0.1324643
54 *49:54 0.1241003
55 *49:55 0.1543572
56 *49:56 0.03451466

*RES
1 *49:13 *54:A2 22.5
2 *49:14 *49:15 22.5
3 *49:16 *49:17 22.5
4 *49:18 *49:19 22.5
5 *49:20 *37:A4 22.5
6 *49:21 *49:22 22.5
7 *49:23 *49:24 22.5
8 *49:25 *47:A2 22.5
9 *49:26 *41:A2 22.5
10 *49:27 *49:28 22.5
11 *49:29 *58:A2 22.5
12 *49:30 *49:31 22.5
13 *49:32 *52:A 22.5
14 *49:33 *51:A 22.5
15 *49:34 *49:35 22.5
16 *49:36 *53:Q 22.5
17 *49:37 *49:36 22.5
18 *49:38 *49:39 22.5
19 *49:40 *49:41 22.5
20 *49:42 *49:43 22.5
21 *49:44 *56:A2 22.5
22 *49:45 *49:46 22.5
23 *49:47 *55:A2 22.5
24 *49:48 *49:49 22.5
25 *49:50 *50:A2 22.5
26 *49:51 *57:A2 22.5
27 *49:25 *49:52 0.7522424
28 *49:53 *49:54 1.201129
29 *49:53 *49:52 5.550454
30 *49:39 *49:32 2.753129
31 *49:32 *49:54 4.187404
32 *49:47 *49:49 0.978512
33 *49:17 *49:19 2.905435
34 *49:29 *49:31 0.4095764
35 *49:43 *49:44 0.1318904
36 *49:13 *49:15 0.4662992
37 *49:33 *49:35 0.5095254
38 *49:22 *49:20 0.1318904
39 *49:46 *49:55 3.452151
40 *49:55 *49:41 2.033159
41 *49:41 *49:24 4.204434
42 *49:55 *49:56 1.049968
43 *49:24 *49:50 0.1326496
44 *49:51 *49:56 0.7660419
45 *49:28 *49:26 0.1326496
46 *49:38 *49:48 2.786611
47 *49:48 *49:18 1.557224
48 *49:18 *49:30 1.038149
49 *49:30 *49:34 2.634546
50 *49:34 *49:45 4.819088
51 *49:45 *49:37 3.319088
52 *49:16 *49:14 6.793458
53 *49:42 *49:40 11.35558
54 *49:21 *49:23 3.797399
55 *49:23 *49:27 3.285506

*END

*D_NET *59 0.07849259

*CONN
*I *47:ZN O *L 0.0 *D NOR2_X1 *C 2.185 12.27
*I *39:A1 I *L 1841.374 *C 1.777 12.112
*N *59:3 *C 2.185 12.27
*N *59:4 *C 1.805 12.27
*N *59:5 *C 1.805 12.27

*CAP
1 *47:ZN 0.0
2 *39:A1 0.006930852
3 *59:3 0.03360769
4 *59:4 0.03360769
5 *59:5 0.00434636

*RES
1 *59:3 *47:ZN 22.5
2 *39:A1 *59:5 0.149193
3 *59:4 *59:5 22.5
4 *59:4 *59:3 1.328222

*END

*D_NET *60 10.51164

*CONN
*I *57:A4 I *L 1046.591 *C 8.455 8.07
*I *61:A2 I *L 1077.17 *C 10.2 9.33
*I *62:A2 I *L 1077.17 *C 8.455 9.33
*I *63:ZN O *L 0.0 *D INV_X1 *C 16.055 7.51
*I *64:A I *L 1938.113 *C 10.165 10.87
*I *65:A I *L 1938.113 *C 10.355 13.67
*I *66:A I *L 1938.113 *C 15.675 6.53
*I *67:A1 I *L 1864.053 *C 7.505 3.73
*I *68:A1 I *L 1864.053 *C 8.265 5.27
*I *69:A1 I *L 1864.053 *C 4.845 0.93
*I *70:A1 I *L 1864.053 *C 6.935 5.27
*I *71:A1 I *L 1864.053 *C 3.325 2.47
*I *72:A1 I *L 1864.053 *C 1.045 5.27
*I *73:A4 I *L 1046.591 *C 2.375 9.33
*I *74:A3 I *L 1059.898 *C 4.085 8.07
*I *48:A1 I *L 1864.053 *C 4.085 10.87
*I *75:A1 I *L 1861.193 *C 7.885 12.13
*I *76:A1 I *L 1864.053 *C 12.635 6.53
*I *77:A1 I *L 1864.053 *C 15.295 13.67
*I *78:A1 I *L 1864.053 *C 15.105 6.53
*I *79:A1 I *L 1864.053 *C 13.205 8.07
*I *80:A1 I *L 1864.053 *C 13.585 2.47
*I *81:A1 I *L 1864.053 *C 11.115 0.93
*N *60:24 *C 7.885 12.13
*N *60:25 *C 7.885 11.85
*N *60:26 *C 7.885 11.85
*N *60:27 *C 7.885 11.85
*N *60:28 *C 7.885 11.85
*N *60:29 *C 4.845 0.93
*N *60:30 *C 4.845 0.79
*N *60:31 *C 4.845 0.79
*N *60:32 *C 6.935 0.79
*N *60:33 *C 6.935 0.79
*N *60:34 *C 6.935 0.93
*N *60:35 *C 9.895 0.93
*N *60:36 *C 9.895 0.93
*N *60:37 *C 6.935 5.27
*N *60:38 *C 6.935 4.85
*N *60:39 *C 6.935 4.85
*N *60:40 *C 3.325 2.47
*N *60:41 *C 3.325 2.61
*N *60:42 *C 3.325 2.61
*N *60:43 *C 1.045 5.27
*N *60:44 *C 1.045 4.85
*N *60:45 *C 1.045 4.85
*N *60:46 *C 2.055 4.85
*N *60:47 *C 2.055 4.85
*N *60:48 *C 15.295 13.67
*N *60:49 *C 15.295 13.67
*N *60:50 *C 12.975 8.07
*N *60:51 *C 12.975 8.07
*N *60:52 *C 12.975 6.67
*N *60:53 *C 12.975 6.67
*N *60:54 *C 7.505 3.73
*N *60:55 *C 7.505 3.87
*N *60:56 *C 7.505 3.87
*N *60:57 *C 7.375 3.87
*N *60:58 *C 7.375 3.87
*N *60:59 *C 8.265 5.27
*N *60:60 *C 8.265 4.85
*N *60:61 *C 8.265 4.85
*N *60:62 *C 12.635 6.53
*N *60:63 *C 12.635 6.67
*N *60:64 *C 12.635 6.67
*N *60:65 *C 15.105 6.53
*N *60:66 *C 15.105 6.67
*N *60:67 *C 15.105 6.67
*N *60:68 *C 11.115 0.93
*N *60:69 *C 11.115 0.93
*N *60:70 *C 9.895 0.93
*N *60:71 *C 13.205 8.07
*N *60:72 *C 13.205 8.07
*N *60:73 *C 2.375 9.33
*N *60:74 *C 2.375 9.33
*N *60:75 *C 2.335 9.33
*N *60:76 *C 13.585 2.47
*N *60:77 *C 13.585 2.47
*N *60:78 *C 4.085 8.07
*N *60:79 *C 4.085 8.07
*N *60:80 *C 2.335 8.07
*N *60:81 *C 2.335 8.07
*N *60:82 *C 10.2 9.33
*N *60:83 *C 10.2 9.33
*N *60:84 *C 10.175 9.33
*N *60:85 *C 10.175 8.07
*N *60:86 *C 10.175 8.07
*N *60:87 *C 8.455 9.33
*N *60:88 *C 8.455 9.33
*N *60:89 *C 8.495 9.33
*N *60:90 *C 8.495 9.33
*N *60:91 *C 8.495 9.33
*N *60:92 *C 8.495 8.07
*N *60:93 *C 8.495 8.07
*N *60:94 *C 8.495 8.07
*N *60:95 *C 8.495 8.07
*N *60:96 *C 9.895 1.49
*N *60:97 *C 9.895 1.49
*N *60:98 *C 12.975 1.49
*N *60:99 *C 12.975 1.49
*N *60:100 *C 12.975 2.47
*N *60:101 *C 12.975 2.47
*N *60:102 *C 10.165 10.87
*N *60:103 *C 10.165 10.87
*N *60:104 *C 9.895 10.87
*N *60:105 *C 9.895 10.87
*N *60:106 *C 9.895 11.85
*N *60:107 *C 9.895 11.85
*N *60:108 *C 15.675 7.65
*N *60:109 *C 15.675 7.65
*N *60:110 *C 7.375 4.85
*N *60:111 *C 9.895 4.85
*N *60:112 *C 9.895 4.85
*N *60:113 *C 9.895 5.55
*N *60:114 *C 9.895 5.55
*N *60:115 *C 7.375 2.61
*N *60:116 *C 7.375 2.61
*N *60:117 *C 10.355 13.67
*N *60:118 *C 10.355 13.67
*N *60:119 *C 15.485 5.55
*N *60:120 *C 15.485 5.55
*N *60:121 *C 2.055 3.87
*N *60:122 *C 2.055 3.87
*N *60:123 *C 3.175 3.87
*N *60:124 *C 3.175 3.87
*N *60:125 *C 3.175 2.61
*N *60:126 *C 3.175 2.61
*N *60:127 *C 10.355 12.97
*N *60:128 *C 10.355 12.97
*N *60:129 *C 9.895 12.97
*N *60:130 *C 9.895 12.97
*N *60:131 *C 9.895 12.97
*N *60:132 *C 9.895 12.97
*N *60:133 *C 9.895 11.85
*N *60:134 *C 15.675 6.53
*N *60:135 *C 15.675 6.67
*N *60:136 *C 15.675 6.67
*N *60:137 *C 7.375 4.85
*N *60:138 *C 7.375 4.85
*N *60:139 *C 4.085 10.87
*N *60:140 *C 4.085 11.15
*N *60:141 *C 4.085 11.15
*N *60:142 *C 6.815 11.15
*N *60:143 *C 6.815 11.15
*N *60:144 *C 6.815 11.85
*N *60:145 *C 6.815 11.85
*N *60:146 *C 8.455 8.07
*N *60:147 *C 8.455 8.07
*N *60:148 *C 16.055 7.51
*N *60:149 *C 16.055 7.65
*N *60:150 *C 16.055 7.65
*N *60:151 *C 14.655 5.55
*N *60:152 *C 14.655 5.55
*N *60:153 *C 14.655 2.47
*N *60:154 *C 14.655 2.47
*N *60:155 *C 15.215 7.65
*N *60:156 *C 15.215 7.65
*N *60:157 *C 15.215 13.67
*N *60:158 *C 15.215 13.67
*N *60:159 *C 15.502 5.69
*N *60:160 *C 15.675 5.69
*N *60:161 *C 2.335 4.85

*CAP
1 *57:A4 0.0
2 *61:A2 0.0
3 *62:A2 0.0
4 *63:ZN 0.0
5 *64:A 0.0
6 *65:A 0.0
7 *66:A 0.0
8 *67:A1 0.0
9 *68:A1 0.0
10 *69:A1 0.0
11 *70:A1 0.0
12 *71:A1 0.0
13 *72:A1 0.0
14 *73:A4 0.0
15 *74:A3 0.0
16 *48:A1 0.0
17 *75:A1 0.0
18 *76:A1 0.0
19 *77:A1 0.0
20 *78:A1 0.0
21 *79:A1 0.0
22 *80:A1 0.0
23 *81:A1 0.0
24 *60:24 0.03958365
25 *60:25 0.007106436
26 *60:26 0.03697307
27 *60:27 0.0194734
28 *60:28 0.1725367
29 *60:29 0.0235525
30 *60:30 0.1450637
31 *60:31 0.02353946
32 *60:32 0.003300322
33 *60:33 0.1423921
34 *60:34 0.1101725
35 *60:35 0.1000806
36 *60:36 0.03674212
37 *60:37 0.05124186
38 *60:38 0.02511525
39 *60:39 0.04863128
40 *60:40 0.01834563
41 *60:41 0.2795639
42 *60:42 0.01573505
43 *60:43 0.04838999
44 *60:44 0.06709055
45 *60:45 0.04577941
46 *60:46 0.0495388
47 *60:47 0.06701648
48 *60:48 0.01535599
49 *60:49 0.03186006
50 *60:50 0.09774831
51 *60:51 0.151461
52 *60:52 0.09774831
53 *60:53 0.1677984
54 *60:54 0.02263406
55 *60:55 0.01184573
56 *60:56 0.02262102
57 *60:57 0.09767651
58 *60:58 0.009174118
59 *60:59 0.04744016
60 *60:60 0.04947674
61 *60:61 0.04482958
62 *60:62 0.02564506
63 *60:63 0.02852354
64 *60:64 0.02563201
65 *60:65 0.02399274
66 *60:66 0.1823233
67 *60:67 0.02397969
68 *60:68 0.01489963
69 *60:69 0.1085563
70 *60:70 0.0883875
71 *60:71 0.01527677
72 *60:72 0.03293078
73 *60:73 0.007048275
74 *60:74 0.02213563
75 *60:75 0.0933715
76 *60:76 0.01581696
77 *60:77 0.1428164
78 *60:78 0.01527397
79 *60:79 0.1449331
80 *60:80 0.2448937
81 *60:81 0.12439
82 *60:82 0.00938908
83 *60:83 0.02194275
84 *60:84 0.07443027
85 *60:85 0.06180254
86 *60:86 0.2245936
87 *60:87 0.009327026
88 *60:88 0.0244226
89 *60:89 0.02486734
90 *60:90 0.01864354
91 *60:91 0.05066245
92 *60:92 0.04166355
93 *60:93 0.002043345
94 *60:94 0.01644287
95 *60:95 0.1160088
96 *60:96 0.03674212
97 *60:97 0.1545435
98 *60:98 0.07291736
99 *60:99 0.1545435
100 *60:100 0.07291736
101 *60:101 0.04195713
102 *60:102 0.006080646
103 *60:103 0.03531421
104 *60:104 0.06510385
105 *60:105 0.02396442
106 *60:106 0.1015575
107 *60:107 0.06358137
108 *60:108 0.05259285
109 *60:109 0.05913939
110 *60:110 0.1036878
111 *60:111 0.1036878
112 *60:112 0.05240895
113 *60:113 0.05393142
114 *60:114 0.30955
115 *60:115 0.05017263
116 *60:116 0.2592579
117 *60:117 0.295155
118 *60:118 0.06422703
119 *60:119 0.0441993
120 *60:120 0.009384914
121 *60:121 0.03348579
122 *60:122 0.06914683
123 *60:123 0.0866506
124 *60:124 0.06914683
125 *60:125 0.0866506
126 *60:126 0.01496279
127 *60:127 0.03606581
128 *60:128 0.06161645
129 *60:129 0.008962967
130 *60:130 0.03599174
131 *60:131 0.01978184
132 *60:132 0.05955064
133 *60:133 0.04867871
134 *60:134 0.04070817
135 *60:135 0.0377793
136 *60:136 0.06530569
137 *60:137 0.04223472
138 *60:138 0.07971299
139 *60:139 0.04424261
140 *60:140 0.2267606
141 *60:141 0.04163204
142 *60:142 0.04677502
143 *60:143 0.2266865
144 *60:144 0.05024507
145 *60:145 0.04525255
146 *60:146 0.01587181
147 *60:147 0.03348612
148 *60:148 0.004358497
149 *60:149 0.01728668
150 *60:150 0.001747916
151 *60:151 0.1822378
152 *60:152 0.3589444
153 *60:153 0.1822378
154 *60:154 0.07450403
155 *60:155 0.3311108
156 *60:156 0.03003702
157 *60:157 0.3311108
158 *60:158 0.311585
159 *60:159 0.02274678
160 *60:160 0.04529314
161 *60:161 0.1827367

*RES
1 *60:24 *75:A1 22.5
2 *60:25 *60:26 22.5
3 *60:27 *60:25 22.5
4 *60:28 *60:27 5.625
5 *60:29 *69:A1 22.5
6 *60:30 *60:31 22.5
7 *60:32 *60:33 22.5
8 *60:34 *60:32 5.625
9 *60:35 *60:36 5.625
10 *60:37 *70:A1 22.5
11 *60:38 *60:39 22.5
12 *60:40 *71:A1 22.5
13 *60:41 *60:42 22.5
14 *60:43 *72:A1 22.5
15 *60:44 *60:45 22.5
16 *60:46 *60:47 22.5
17 *60:48 *77:A1 22.5
18 *60:49 *60:48 22.5
19 *60:50 *60:51 22.5
20 *60:52 *60:53 22.5
21 *60:54 *67:A1 22.5
22 *60:55 *60:56 22.5
23 *60:57 *60:58 22.5
24 *60:59 *68:A1 22.5
25 *60:60 *60:61 22.5
26 *60:62 *76:A1 22.5
27 *60:63 *60:64 22.5
28 *60:65 *78:A1 22.5
29 *60:66 *60:67 22.5
30 *60:68 *81:A1 22.5
31 *60:69 *60:68 22.5
32 *60:36 *60:70 22.5
33 *60:71 *79:A1 22.5
34 *60:72 *60:71 22.5
35 *60:73 *73:A4 22.5
36 *60:74 *60:73 22.5
37 *60:75 *60:74 22.5
38 *60:76 *80:A1 22.5
39 *60:77 *60:76 22.5
40 *60:78 *74:A3 22.5
41 *60:79 *60:78 22.5
42 *60:80 *60:81 22.5
43 *60:82 *61:A2 22.5
44 *60:83 *60:82 22.5
45 *60:84 *60:83 22.5
46 *60:85 *60:86 22.5
47 *60:87 *62:A2 22.5
48 *60:88 *60:87 22.5
49 *60:89 *60:88 22.5
50 *60:90 *60:89 5.625
51 *60:91 *60:90 5.625
52 *60:92 *60:93 5.625
53 *60:93 *60:94 5.625
54 *60:94 *60:95 22.5
55 *60:96 *60:97 22.5
56 *60:98 *60:99 22.5
57 *60:100 *60:101 22.5
58 *60:102 *64:A 22.5
59 *60:103 *60:102 22.5
60 *60:104 *60:105 22.5
61 *60:106 *60:107 5.625
62 *60:108 *60:109 22.5
63 *60:110 *60:137 5.625
64 *60:111 *60:112 5.625
65 *60:113 *60:114 22.5
66 *60:115 *60:116 22.5
67 *60:117 *60:118 22.5
68 *60:119 *60:120 22.5
69 *60:121 *60:122 22.5
70 *60:123 *60:124 22.5
71 *60:125 *60:126 22.5
72 *60:127 *60:128 22.5
73 *60:129 *60:130 22.5
74 *60:131 *60:129 5.625
75 *60:132 *60:131 5.625
76 *60:133 *60:106 5.625
77 *60:134 *66:A 22.5
78 *60:135 *60:136 22.5
79 *60:137 *60:138 22.5
80 *60:139 *48:A1 22.5
81 *60:140 *60:141 22.5
82 *60:142 *60:143 22.5
83 *60:144 *60:145 5.625
84 *60:146 *57:A4 22.5
85 *60:147 *60:146 22.5
86 *60:118 *65:A 22.5
87 *60:148 *63:ZN 22.5
88 *60:149 *60:150 22.5
89 *60:151 *60:152 22.5
90 *60:153 *60:154 22.5
91 *60:155 *60:156 22.5
92 *60:157 *60:158 22.5
93 *60:45 *60:43 0.8198819
94 *60:40 *60:42 0.4555539
95 *60:139 *60:141 0.5530925
96 *60:31 *60:29 0.4003105
97 *60:39 *60:37 0.8910076
98 *60:54 *60:56 0.3995648
99 *60:26 *60:24 0.4390064
100 *60:61 *60:59 0.79783
101 *60:128 *60:118 1.47502
102 *60:62 *60:64 0.4773138
103 *60:65 *60:67 0.4060172
104 *60:120 *60:159 0.5072872
105 *60:159 *60:160 0.4049099
106 *60:134 *60:136 0.2683934
107 *60:160 *60:134 2.063164
108 *60:136 *60:109 2.501466
109 *60:150 *60:148 0.130372
110 *60:44 *60:47 3.078533
111 *60:122 *60:124 3.458337
112 *60:81 *60:79 7.160561
113 *60:126 *60:41 1.013247
114 *60:41 *60:116 14.79666
115 *60:140 *60:143 13.95257
116 *60:30 *60:33 8.739641
117 *60:38 *60:138 1.238686
118 *60:138 *60:60 2.331643
119 *60:58 *60:55 0.5872726
120 *60:147 *60:95 0.08597676
121 *60:95 *60:86 4.147768
122 *60:86 *60:51 6.458939
123 *60:51 *60:72 0.6921213
124 *60:70 *60:69 3.6894
125 *60:97 *60:99 7.425944
126 *60:114 *60:152 17.28075
127 *60:152 *60:119 2.075525
128 *60:105 *60:103 1.0975
129 *60:130 *60:127 1.383963
130 *60:117 *60:158 15.55529
131 *60:158 *60:49 0.08506773
132 *60:63 *60:53 1.705266
133 *60:53 *60:66 6.254776
134 *60:66 *60:135 1.642003
135 *60:101 *60:77 2.51737
136 *60:77 *60:154 3.466903
137 *60:156 *60:108 1.576972
138 *60:108 *60:149 1.040776
139 *60:121 *60:46 1.919809
140 *60:46 *60:161 0.6402385
141 *60:161 *60:80 5.751237
142 *60:80 *60:75 2.432219
143 *60:125 *60:123 2.553928
144 *60:142 *60:145 1.505341
145 *60:115 *60:57 2.357596
146 *60:57 *60:137 1.86126
147 *60:36 *60:96 1.283949
148 *60:112 *60:113 1.503649
149 *60:104 *60:107 2.009237
150 *60:85 *60:84 2.487158
151 *60:98 *60:100 2.02766
152 *60:52 *60:50 2.729848
153 *60:153 *60:151 5.917847
154 *60:155 *60:157 11.3206
155 *60:144 *60:28 2.007614
156 *60:28 *60:106 3.66937
157 *60:34 *60:35 5.50178
158 *60:110 *60:111 4.689247
159 *60:92 *60:91 2.553928
160 *60:133 *60:132 2.298535

*END

*D_NET *82 1.432895

*CONN
*I *48:A2 I *L 1844.203 *C 3.922 10.887
*I *83:A1 I *L 1756.551 *C 5.767 8.087