*SPEF "1481-1998"
*DESIGN "c1908"
*DATE "Wed Jul  2 15:14:08 2014"
*VENDOR "Synopsys, Inc."
*PROGRAM "icc_shell"
*VERSION "G-2012.06-ICC-SP5"
*DESIGN_FLOW "PIN_CAP NONE"
*DIVIDER /
*DELIMITER :
*BUS_DELIMITER [ ]
*T_UNIT 1 NS
*C_UNIT 1 FF
*R_UNIT 1 OHM
*L_UNIT 1 HENRY

*NAME_MAP
*1 N4
*2 N1
*3 VDD
*4 VSS
*5 N28
*6 N25
*7 N22
*8 N19
*9 N16
*10 N13
*11 N10
*12 N7
*13 N53
*14 N49
*15 N46
*16 N43
*17 N40
*18 N37
*19 N34
*20 N31
*21 N79
*22 N76
*23 N72
*24 N69
*25 N66
*26 N63
*27 N60
*28 N56
*29 N2753
*30 N104
*31 N99
*32 N94
*33 N91
*34 N88
*35 N85
*36 N82
*37 N2780
*38 N2779
*39 N2768
*40 N2767
*41 N2762
*42 N2756
*43 N2755
*44 N2754
*45 N2811
*46 N2787
*47 N2786
*48 N2785
*49 N2784
*50 N2783
*51 N2782
*52 N2781
*53 N2899
*54 N2892
*55 N2891
*56 N2890
*57 N2889
*58 N2888
*59 N2887
*60 N2886
*61 N2898
*62 AND2_880
*63 NAND2_879
*64 N552
*65 NAND2_77
*66 N2895
*67 NAND2_876
*68 N2897
*69 NAND2_878
*70 N1383
*71 NOT1_382
*72 NAND2_345
*73 N2896
*74 NOT1_877
*75 N2883
*76 NAND2_868
*77 N1461
*78 N2873
*79 NAND2_875
*80 NAND2_858
*81 N2882
*82 NAND2_867
*83 N2871
*84 NAND2_874
*85 NAND2_856
*86 N2881
*87 NAND2_866
*88 N555
*89 AND2_873
*90 NAND2_80
*91 N2880
*92 NAND2_865
*93 N2879
*94 AND2_872
*95 NAND2_864
*96 N554
*97 NAND2_79
*98 N553
*99 AND2_871
*100 NAND2_78
*101 N2878
*102 NAND2_863
*103 N551
*104 AND2_870
*105 NAND2_76
*106 N2877
*107 NAND2_862
*108 N2876
*109 AND2_869
*110 NAND2_861
*111 N550
*112 NAND2_75
*113 N2875
*114 NAND2_860
*115 N2863
*116 NAND2_850
*117 N685
*118 NOT1_148
*119 AND2_124
*120 N2874
*121 NOT1_859
*122 N682
*123 NOT1_147
*124 AND2_123
*125 N2872
*126 NOT1_857
*127 N2870
*128 NAND2_855
*129 N2854
*130 NAND2_843
*131 N2869
*132 NAND2_854
*133 N2853
*134 NAND2_842
*135 N2868
*136 NAND2_853
*137 N2852
*138 NAND2_841
*139 N2867
*140 NAND2_852
*141 N2851
*142 NAND2_840
*143 N2866
*144 NAND2_851
*145 N2850
*146 NAND2_839
*147 N1933
*148 NOT1_602
*149 NAND2_582
*150 N2862
*151 NOT1_849
*152 N2846
*153 NAND2_838
*154 N887
*155 N2843
*156 NAND2_837
*157 N886
*158 N1902
*159 NOT1_585
*160 BUFF1_568
*161 N2861
*162 NOT1_848
*163 N1818
*164 NOT1_549
*165 BUFF1_531
*166 N2860
*167 NOT1_847
*168 N1866
*169 NOT1_573
*170 BUFF1_553
*171 N2859
*172 NOT1_846
*173 N2055
*174 NOT1_648
*175 NAND2_640
*176 N2858
*177 NOT1_845
*178 N2052
*179 NOT1_647
*180 NAND2_639
*181 N2857
*182 NOT1_844
*183 N2829
*184 AND3_836
*185 N1985
*186 N2824
*187 AND3_833
*188 N2821
*189 AND3_832
*190 N2818
*191 AND3_831
*192 N2815
*193 AND3_830
*194 N2812
*195 AND3_829
*196 N1938
*197 N1857
*198 N1915
*199 N2077
*200 N2076
*201 N2809
*202 NAND2_826
*203 N2828
*204 NAND2_835
*205 N2807
*206 NAND2_824
*207 N2827
*208 NAND2_834
*209 NOT1_24
*210 N283
*211 BUFF1_31
*212 N2789
*213 NAND2_822
*214 N1968
*215 NOT1_620
*216 AND2_595
*217 N2810
*218 NOT1_827
*219 N1965
*220 NOT1_619
*221 AND2_594
*222 N2808
*223 NOT1_825
*224 N898
*225 AND2_159
*226 NOT1_26
*227 NOT1_25
*228 NOT1_23
*229 N897
*230 AND2_158
*231 N2384
*232 NOR2_828
*233 AND4_705
*234 N2800
*235 AND4_823
*236 N2776
*237 AND2_811
*238 N2019
*239 N2773
*240 AND2_810
*241 N2018
*242 N338
*243 AND3_175
*244 NAND3_174
*245 NOT1_42
*246 N2279
*247 NAND8_696
*248 NOT1_37
*249 NOT1_36
*250 BUFF1_35
*251 N2788
*252 AND3_821
*253 N2747
*254 AND8_792
*255 N2750
*256 AND8_793
*257 N2710
*258 AND8_764
*259 N2741
*260 NAND2_820
*261 NAND2_786
*262 N2766
*263 NAND2_807
*264 N2739
*265 NAND2_819
*266 NAND2_784
*267 N2765
*268 NAND2_806
*269 N2737
*270 NAND2_818
*271 NAND2_782
*272 N2764
*273 NAND2_805
*274 N2735
*275 NAND2_817
*276 NAND2_780
*277 N2763
*278 NAND2_804
*279 N2732
*280 NAND2_816
*281 NAND2_777
*282 N2761
*283 NAND2_802
*284 N2730
*285 NAND2_815
*286 NAND2_775
*287 N2760
*288 NAND2_801
*289 N2728
*290 NAND2_814
*291 NAND2_773
*292 N2759
*293 NAND2_800
*294 N2726
*295 NAND2_813
*296 NAND2_771
*297 N2758
*298 NAND2_799
*299 N2724
*300 NAND2_812
*301 NAND2_769
*302 N2757
*303 NAND2_798
*304 N2746
*305 NAND8_791
*306 N276
*307 NOT1_28
*308 N2745
*309 NAND8_790
*310 N275
*311 NOT1_27
*312 N2690
*313 NAND2_809
*314 NAND2_762
*315 N2744
*316 NAND2_789
*317 N2688
*318 NAND2_808
*319 NAND2_760
*320 N2743
*321 NAND2_788
*322 N382
*323 NOT1_72
*324 BUFF1_56
*325 N2742
*326 NOT1_787
*327 N379
*328 NOT1_71
*329 BUFF1_55
*330 N2740
*331 NOT1_785
*332 N376
*333 NOT1_70
*334 BUFF1_54
*335 N2738
*336 NOT1_783
*337 N373
*338 NOT1_69
*339 BUFF1_53
*340 N2736
*341 NOT1_781
*342 N2682
*343 NAND2_803
*344 NAND2_758
*345 N2734
*346 NAND2_779
*347 N367
*348 NOT1_67
*349 BUFF1_51
*350 N2733
*351 NOT1_778
*352 N364
*353 NOT1_66
*354 BUFF1_50
*355 N2731
*356 NOT1_776
*357 N361
*358 NOT1_65
*359 BUFF1_49
*360 N2729
*361 NOT1_774
*362 N358
*363 NOT1_64
*364 BUFF1_48
*365 N2727
*366 NOT1_772
*367 N355
*368 NOT1_63
*369 BUFF1_47
*370 N2725
*371 NOT1_770
*372 N2675
*373 NAND2_797
*374 NAND2_756
*375 N2723
*376 NAND2_768
*377 N2673
*378 NAND2_796
*379 NAND2_754
*380 N2722
*381 NAND2_767
*382 N2671
*383 NAND2_795
*384 NAND2_752
*385 N2721
*386 NAND2_766
*387 N2669
*388 NAND2_794
*389 NAND2_750
*390 N2720
*391 NAND2_765
*392 extra51
*393 AND8_793_B
*394 N2555
*395 NAND5_716
*396 extra50
*397 AND8_793_A
*398 N2617
*399 NAND8_791_B
*400 NAND5_731
*401 N2620
*402 NAND5_732
*403 N2552
*404 NAND5_715
*405 N2606
*406 NAND8_791_A
*407 NAND5_728
*408 N2549
*409 NAND5_714
*410 N2611
*411 NAND5_729
*412 N2614
*413 NAND5_730
*414 extra49
*415 AND8_792_B
*416 N2603
*417 NAND5_727
*418 extra48
*419 AND8_792_A
*420 N2594
*421 NAND8_790_B
*422 NAND5_724
*423 N2597
*424 NAND5_725
*425 N2600
*426 NAND5_726
*427 N2537
*428 NAND8_790_A
*429 NAND5_710
*430 N2540
*431 NAND5_711
*432 N2543
*433 NAND5_712
*434 N2546
*435 NAND5_713
*436 extra47
*437 extra46
*438 extra45
*439 extra44
*440 N388
*441 NOT1_74
*442 BUFF1_58
*443 N2691
*444 NOT1_763
*445 N385
*446 NOT1_73
*447 BUFF1_57
*448 N2689
*449 NOT1_761
*450 N2664
*451 AND5_749
*452 N547
*453 N2661
*454 AND5_748
*455 N546
*456 N2658
*457 AND5_747
*458 N545
*459 N2655
*460 AND5_746
*461 N544
*462 N370
*463 NOT1_68
*464 BUFF1_52
*465 N2683
*466 NOT1_759
*467 N2651
*468 AND5_745
*469 N542
*470 N2648
*471 AND5_744
*472 N541
*473 N2645
*474 AND5_743
*475 N540
*476 N2642
*477 AND5_742
*478 N539
*479 N2639
*480 AND5_741
*481 N538
*482 N352
*483 NOT1_62
*484 BUFF1_46
*485 N2676
*486 NOT1_757
*487 N349
*488 NOT1_61
*489 BUFF1_45
*490 N2674
*491 NOT1_755
*492 N346
*493 NOT1_60
*494 BUFF1_44
*495 N2672
*496 NOT1_753
*497 N343
*498 NOT1_59
*499 BUFF1_43
*500 N2670
*501 NOT1_751
*502 extra43
*503 AND8_764_B
*504 N2634
*505 NAND5_740
*506 extra42
*507 AND8_764_A
*508 N2631
*509 NAND5_737
*510 N2632
*511 NAND5_738
*512 N2633
*513 NAND5_739
*514 N2627
*515 NAND5_733
*516 N2628
*517 NAND5_734
*518 N2629
*519 NAND5_735
*520 N2630
*521 NAND5_736
*522 N2576
*523 AND5_723
*524 N549
*525 N2573
*526 AND5_722
*527 N548
*528 N2570
*529 AND5_721
*530 N543
*531 N2567
*532 AND5_720
*533 N537
*534 N2564
*535 AND5_719
*536 N536
*537 N2561
*538 AND5_718
*539 N535
*540 N2558
*541 AND5_717
*542 N534
*543 extra41
*544 AND5_749_A
*545 N1188
*546 NAND2_269
*547 N2386
*548 NAND5_735_A
*549 NAND5_734_A
*550 NAND5_732_A
*551 NAND5_731_A
*552 NAND5_730_A
*553 NAND5_729_A
*554 AND2_707
*555 AND5_748_A
*556 AND5_747_A
*557 AND5_746_A
*558 NAND5_739_A
*559 NAND5_738_A
*560 NAND5_737_A
*561 NAND5_736_A
*562 N2326
*563 AND5_723_A
*564 AND5_722_A
*565 NAND5_716_A
*566 NAND5_715_A
*567 BUFF1_700
*568 N2353
*569 AND5_745_A
*570 NAND5_728_A
*571 AND5_720_A
*572 NAND5_713_A
*573 AND2_702
*574 N2129
*575 NAND5_724_A
*576 AND5_718_A
*577 NAND5_711_A
*578 AND2_655
*579 AND5_741_A
*580 extra40
*581 N2375
*582 AND2_704
*583 AND5_743_A
*584 NAND5_726_A
*585 AND5_721_A
*586 NAND5_714_A
*587 N2104
*588 AND5_717_A
*589 NAND5_710_A
*590 AND2_653
*591 NAND5_740_A
*592 NAND5_733_A
*593 extra39
*594 N2361
*595 AND2_703
*596 AND5_742_A
*597 NAND5_725_A
*598 N2119
*599 NAND5_712_A
*600 AND2_654
*601 AND5_719_A
*602 extra38
*603 extra37
*604 N2297
*605 BUFF1_698
*606 AND5_744_A
*607 NAND5_727_A
*608 N2427
*609 AND2_709
*610 extra36
*611 N1171
*612 NAND2_268
*613 N2340
*614 AND2_701
*615 N2143
*616 AND2_656
*617 extra35
*618 extra34
*619 extra33
*620 N2286
*621 BUFF1_697
*622 extra32
*623 N926
*624 N2385
*625 AND2_706
*626 extra31
*627 N2426
*628 AND2_708
*629 extra30
*630 extra29
*631 extra28
*632 extra27
*633 extra26
*634 extra25
*635 extra24
*636 extra23
*637 extra22
*638 extra21
*639 extra20
*640 extra19
*641 extra18
*642 extra17
*643 extra16
*644 extra15
*645 extra14
*646 extra13
*647 N2315
*648 BUFF1_699
*649 extra12
*650 extra11
*651 extra10
*652 extra9
*653 extra8
*654 extra7
*655 extra6
*656 extra5
*657 extra4
*658 extra3
*659 extra2
*660 N1168
*661 AND2_695
*662 BUFF1_267
*663 N2269
*664 NOT1_694
*665 N1167
*666 NOT1_266
*667 N1164
*668 AND2_693
*669 BUFF1_265
*670 N2263
*671 NOT1_692
*672 N1163
*673 NOT1_264
*674 N313
*675 N2089
*676 BUFF1_652
*677 N2260
*678 BUFF1_691
*679 N2086
*680 NOT1_651
*681 N2257
*682 NOT1_690
*683 N2272
*684 N2266
*685 extra1
*686 NAND8_696_B
*687 N903
*688 NAND2_161
*689 extra0
*690 NAND8_696_A
*691 N899
*692 NAND2_160
*693 N2256
*694 NOT1_689
*695 N2253
*696 NOT1_688
*697 N2067
*698 NOT1_644
*699 N2012
*700 NOT1_614
*701 N2047
*702 NOT1_638
*703 N2250
*704 NOT1_687
*705 N2245
*706 NAND2_686
*707 N2241
*708 NAND2_684
*709 N2237
*710 NAND2_682
*711 N2244
*712 NAND2_685
*713 N2240
*714 NAND2_683
*715 N2236
*716 NAND2_681
*717 N2228
*718 NAND2_673
*719 N2235
*720 NAND2_680
*721 N2226
*722 NAND2_671
*723 N2234
*724 NAND2_679
*725 N2224
*726 NAND2_669
*727 N2233
*728 NAND2_678
*729 N2222
*730 NAND2_667
*731 N2232
*732 NAND2_677
*733 N2216
*734 NAND2_665
*735 N2231
*736 NAND2_676
*737 N2214
*738 NAND2_663
*739 N2230
*740 NAND2_675
*741 N658
*742 NOT1_165
*743 BUFF1_115
*744 N2229
*745 NOT1_674
*746 N661
*747 NOT1_164
*748 BUFF1_116
*749 N2227
*750 NOT1_672
*751 N1252
*752 NOT1_332
*753 BUFF1_307
*754 N2225
*755 NOT1_670
*756 N1255
*757 NOT1_331
*758 BUFF1_308
*759 N2223
*760 NOT1_668
*761 N664
*762 NOT1_167
*763 BUFF1_117
*764 N2217
*765 NOT1_666
*766 N667
*767 NOT1_166
*768 BUFF1_118
*769 N2215
*770 NOT1_664
*771 N2202
*772 BUFF1_661
*773 N914
*774 N2205
*775 BUFF1_662
*776 N913
*777 N2196
*778 BUFF1_659
*779 N1349
*780 N2199
*781 BUFF1_660
*782 N1348
*783 N2148
*784 BUFF1_657
*785 N916
*786 N2151
*787 BUFF1_658
*788 N915
*789 N2081
*790 NAND2_650
*791 N2078
*792 NAND2_649
*793 N2062
*794 NAND2_643
*795 N2033
*796 BUFF1_630
*797 N2071
*798 BUFF1_646
*799 N2030
*800 NOT1_629
*801 N2068
*802 NOT1_645
*803 N2042
*804 NAND2_637
*805 N2061
*806 NAND2_642
*807 N290
*808 NAND2_563
*809 NAND2_550
*810 NAND2_524
*811 NOT1_32
*812 N2060
*813 NOT1_641
*814 N2027
*815 NAND2_628
*816 N2041
*817 NAND2_636
*818 N2040
*819 NAND2_635
*820 N2039
*821 NAND2_634
*822 N2022
*823 NAND2_623
*824 N2038
*825 NAND2_633
*826 N2037
*827 NAND2_632
*828 N2016
*829 NAND2_618
*830 N2036
*831 NAND2_631
*832 N2014
*833 NAND2_616
*834 N2026
*835 NAND2_627
*836 N2006
*837 NAND2_610
*838 N2025
*839 NAND2_626
*840 N2004
*841 NAND2_608
*842 N2024
*843 NAND2_625
*844 N2023
*845 NAND2_624
*846 N2003
*847 NAND2_607
*848 N1534
*849 NOT1_438
*850 NAND2_425
*851 N2021
*852 NOT1_622
*853 N2020
*854 NAND2_621
*855 N2000
*856 NAND2_605
*857 N1571
*858 NOT1_451
*859 NOT1_435
*860 N2015
*861 NOT1_617
*862 N1875
*863 NOT1_578
*864 NAND2_556
*865 N2013
*866 NOT1_615
*867 N1980
*868 NAND2_601
*869 N1977
*870 NAND2_598
*871 N2009
*872 NAND2_613
*873 N1975
*874 NAND2_596
*875 N2008
*876 NAND2_612
*877 N1258
*878 NOT1_334
*879 BUFF1_309
*880 N2007
*881 NOT1_611
*882 N1261
*883 NOT1_333
*884 BUFF1_310
*885 N2005
*886 NOT1_609
*887 N1440
*888 NOT1_407
*889 NOT1_365
*890 N2002
*891 NOT1_606
*892 N1987
*893 NOT1_603
*894 N1591
*895 N1898
*896 NOT1_584
*897 NOT1_567
*898 N1999
*899 NOT1_604
*900 N1961
*901 NAND2_593
*902 N1635
*903 N1958
*904 BUFF1_592
*905 N1923
*906 N1979
*907 NAND2_600
*908 N670
*909 NOT1_169
*910 BUFF1_119
*911 N1978
*912 NOT1_599
*913 N673
*914 NOT1_168
*915 BUFF1_120
*916 N1976
*917 NOT1_597
*918 N1950
*919 BUFF1_590
*920 N1351
*921 N1953
*922 BUFF1_591
*923 N1350
*924 N1947
*925 NOT1_589
*926 N1499
*927 N1944
*928 BUFF1_588
*929 N1937
*930 N1936
*931 NAND2_583
*932 N1921
*933 NAND2_576
*934 N1942
*935 NAND2_587
*936 N1919
*937 NAND2_574
*938 N1941
*939 NAND2_586
*940 N1927
*941 BUFF1_580
*942 N918
*943 N1930
*944 BUFF1_581
*945 N917
*946 N602
*947 NAND2_97
*948 N1912
*949 NOT1_571
*950 N1910
*951 NOT1_569
*952 N601
*953 NAND2_96
*954 N1896
*955 NAND2_565
*956 N1924
*957 NAND2_579
*958 N1879
*959 NAND2_558
*960 N1889
*961 N1913
*962 NAND2_572
*963 N676
*964 NOT1_171
*965 BUFF1_121
*966 N1922
*967 NOT1_577
*968 N679
*969 NOT1_170
*970 BUFF1_122
*971 N1920
*972 NOT1_575
*973 N1882
*974 NAND2_559
*975 N1911
*976 NAND2_570
*977 N1865
*978 NAND2_552
*979 N1897
*980 NAND2_566
*981 N1858
*982 N1714
*983 NOT1_514
*984 BUFF1_484
*985 N1895
*986 NOT1_564
*987 N1869
*988 BUFF1_554
*989 N920
*990 N1872
*991 BUFF1_555
*992 N919
*993 N1855
*994 NAND2_547
*995 N1885
*996 NAND2_562
*997 N1884
*998 NAND2_561
*999 N1717
*1000 NOT1_506
*1001 BUFF1_485
*1002 N1883
*1003 NOT1_560
*1004 N1878
*1005 NAND2_557
*1006 N1830
*1007 NAND2_539
*1008 N1850
*1009 NAND2_545
*1010 N1640
*1011 NOT1_490
*1012 BUFF1_455
*1013 N1864
*1014 NOT1_551
*1015 N1838
*1016 NAND2_541
*1017 N1785
*1018 N1643
*1019 NOT1_477
*1020 BUFF1_456
*1021 N1856
*1022 NOT1_548
*1023 N1826
*1024 NAND2_537
*1025 N1852
*1026 NAND2_546
*1027 N1841
*1028 NAND2_542
*1029 N1768
*1030 N1823
*1031 NAND2_534
*1032 N1849
*1033 NAND2_544
*1034 N1821
*1035 NAND2_532
*1036 N1848
*1037 NAND2_543
*1038 N1808
*1039 NAND2_526
*1040 N1837
*1041 NAND2_540
*1042 N1802
*1043 N1798
*1044 NAND2_522
*1045 N1812
*1046 NAND2_529
*1047 N1728
*1048 N1815
*1049 NAND2_530
*1050 N1707
*1051 N1319
*1052 NOT1_356
*1053 NOT1_323
*1054 N1827
*1055 NOT1_538
*1056 N1795
*1057 NAND2_520
*1058 N1825
*1059 NAND2_536
*1060 N1416
*1061 NOT1_400
*1062 BUFF1_359
*1063 N1824
*1064 NOT1_535
*1065 N1419
*1066 NOT1_399
*1067 BUFF1_360
*1068 N1822
*1069 NOT1_533
*1070 N1810
*1071 NAND2_528
*1072 N1787
*1073 NAND2_516
*1074 N1809
*1075 NAND2_527
*1076 N1784
*1077 NAND2_513
*1078 N959
*1079 NOT1_283
*1080 BUFF1_188
*1081 N1807
*1082 NOT1_525
*1083 N1772
*1084 NAND2_508
*1085 N1801
*1086 NAND2_523
*1087 N1788
*1088 NAND2_517
*1089 N1409
*1090 N962
*1091 NOT1_256
*1092 BUFF1_189
*1093 N1796
*1094 NOT1_521
*1095 N1774
*1096 NAND2_510
*1097 N1491
*1098 N1777
*1099 NAND2_511
*1100 N1490
*1101 N1742
*1102 NAND2_496
*1103 N1792
*1104 NAND2_519
*1105 N1764
*1106 NAND2_505
*1107 N1791
*1108 NAND2_518
*1109 N1762
*1110 NAND2_503
*1111 N1615
*1112 NOT1_471
*1113 BUFF1_448
*1114 N1786
*1115 NOT1_515
*1116 N1612
*1117 NOT1_470
*1118 BUFF1_447
*1119 N1783
*1120 NOT1_512
*1121 N1748
*1122 NAND2_499
*1123 N1218
*1124 N1334
*1125 NOT1_358
*1126 NOT1_327
*1127 N1773
*1128 NOT1_509
*1129 N1740
*1130 NAND2_494
*1131 N1769
*1132 NAND2_507
*1133 N1751
*1134 NAND2_500
*1135 N1155
*1136 N1664
*1137 NOT1_491
*1138 BUFF1_461
*1139 N1763
*1140 NOT1_504
*1141 N1661
*1142 NOT1_489
*1143 BUFF1_460
*1144 N1761
*1145 NOT1_502
*1146 N1720
*1147 NAND2_486
*1148 N1759
*1149 NAND2_501
*1150 N1734
*1151 BUFF1_493
*1152 N1683
*1153 N1731
*1154 BUFF1_492
*1155 N1682
*1156 N1710
*1157 NAND2_480
*1158 N1747
*1159 NAND2_498
*1160 N1708
*1161 NAND2_478
*1162 N1746
*1163 NAND2_497
*1164 N1723
*1165 NAND2_488
*1166 N1413
*1167 N1472
*1168 NOT1_420
*1169 NAND2_390
*1170 N1741
*1171 NOT1_495
*1172 N1701
*1173 BUFF1_475
*1174 N1730
*1175 N1697
*1176 BUFF1_474
*1177 N1727
*1178 N1537
*1179 NOT1_439
*1180 NAND2_426
*1181 N1721
*1182 NOT1_487
*1183 N1680
*1184 NAND2_468
*1185 N1713
*1186 NAND2_483
*1187 N1678
*1188 NAND2_466
*1189 N1712
*1190 NAND2_482
*1191 N1603
*1192 NOT1_465
*1193 BUFF1_444
*1194 N1711
*1195 NOT1_481
*1196 N1600
*1197 NOT1_464
*1198 BUFF1_443
*1199 N1709
*1200 NOT1_479
*1201 N1671
*1202 NAND2_462
*1203 N1706
*1204 NAND2_476
*1205 N1685
*1206 NAND2_472
*1207 N1528
*1208 N1623
*1209 BUFF1_450
*1210 N1638
*1211 NAND2_453
*1212 N1688
*1213 NAND2_473
*1214 N1658
*1215 BUFF1_459
*1216 N1593
*1217 N1620
*1218 BUFF1_449
*1219 N1031
*1220 NOT1_284
*1221 BUFF1_226
*1222 N1681
*1223 NOT1_469
*1224 N1028
*1225 NOT1_282
*1226 BUFF1_225
*1227 N1679
*1228 NOT1_467
*1229 N1651
*1230 BUFF1_458
*1231 N1677
*1232 N1647
*1233 BUFF1_457
*1234 N1675
*1235 N643
*1236 NOT1_154
*1237 AND3_110
*1238 N1672
*1239 NOT1_463
*1240 N1588
*1241 BUFF1_437
*1242 N1510
*1243 NOT1_434
*1244 NOT1_411
*1245 N1639
*1246 NOT1_454
*1247 N1594
*1248 NAND2_440
*1249 N1636
*1250 NAND2_452
*1251 N1609
*1252 BUFF1_446
*1253 N1219
*1254 N1606
*1255 BUFF1_445
*1256 N1217
*1257 N1596
*1258 NAND2_442
*1259 N893
*1260 N1557
*1261 NOT1_430
*1262 N1554
*1263 NOT1_429
*1264 N1546
*1265 NOT1_428
*1266 N1561
*1267 NOT1_431
*1268 N1576
*1269 NOT1_436
*1270 N1569
*1271 N1478
*1272 NOT1_422
*1273 NAND2_393
*1274 N1595
*1275 NOT1_441
*1276 N1514
*1277 NAND2_413
*1278 N1522
*1279 NAND2_417
*1280 N1517
*1281 NAND2_414
*1282 N1567
*1283 NAND2_432
*1284 N1568
*1285 NAND2_433
*1286 N1540
*1287 NAND2_427
*1288 N1530
*1289 N1529
*1290 NAND2_421
*1291 N1527
*1292 NAND2_419
*1293 N1481
*1294 NOT1_423
*1295 NAND2_394
*1296 N1532
*1297 NOT1_424
*1298 N1484
*1299 NAND2_395
*1300 N1531
*1301 N1520
*1302 NAND2_415
*1303 N1526
*1304 NAND2_418
*1305 N1521
*1306 NAND2_416
*1307 N1513
*1308 NAND2_412
*1309 N1476
*1310 NAND2_392
*1311 N1504
*1312 NAND2_410
*1313 N1469
*1314 NAND2_387
*1315 N1500
*1316 NAND2_408
*1317 N1471
*1318 NAND2_389
*1319 N1501
*1320 NAND2_409
*1321 N1462
*1322 NAND2_383
*1323 N1498
*1324 NAND2_406
*1325 N1459
*1326 NAND2_380
*1327 N1496
*1328 NAND2_405
*1329 N1457
*1330 NAND2_378
*1331 N1495
*1332 NAND2_404
*1333 N1455
*1334 NAND2_376
*1335 N1494
*1336 NAND2_403
*1337 N1453
*1338 NAND2_374
*1339 N1493
*1340 NAND2_402
*1341 N1451
*1342 NAND2_372
*1343 N1492
*1344 NAND2_401
*1345 N1447
*1346 NAND2_370
*1347 N1489
*1348 NAND2_398
*1349 N1445
*1350 NAND2_368
*1351 N1488
*1352 NAND2_397
*1353 N1443
*1354 NAND2_366
*1355 N1487
*1356 NAND2_396
*1357 N1464
*1358 NAND2_385
*1359 N994
*1360 NOT1_301
*1361 BUFF1_207
*1362 N1475
*1363 NOT1_391
*1364 N973
*1365 NOT1_292
*1366 BUFF1_194
*1367 N1470
*1368 NOT1_388
*1369 N965
*1370 NOT1_287
*1371 BUFF1_190
*1372 N1468
*1373 NOT1_386
*1374 N998
*1375 NOT1_262
*1376 BUFF1_209
*1377 N1463
*1378 NOT1_384
*1379 N977
*1380 NOT1_258
*1381 BUFF1_196
*1382 N1460
*1383 NOT1_381
*1384 N969
*1385 NOT1_257
*1386 BUFF1_192
*1387 N1458
*1388 NOT1_379
*1389 N951
*1390 NOT1_255
*1391 BUFF1_184
*1392 N1456
*1393 NOT1_377
*1394 N955
*1395 NOT1_254
*1396 BUFF1_186
*1397 N1454
*1398 NOT1_375
*1399 N947
*1400 NOT1_253
*1401 BUFF1_182
*1402 N1452
*1403 NOT1_373
*1404 N943
*1405 NOT1_252
*1406 BUFF1_180
*1407 N1448
*1408 NOT1_371
*1409 N935
*1410 NOT1_250
*1411 BUFF1_176
*1412 N1446
*1413 NOT1_369
*1414 N939
*1415 NOT1_249
*1416 BUFF1_178
*1417 N1444
*1418 NOT1_367
*1419 N1397
*1420 NAND2_353
*1421 N1438
*1422 NAND2_363
*1423 N1399
*1424 NAND2_355
*1425 N1439
*1426 NAND2_364
*1427 N1389
*1428 NAND2_349
*1429 N1434
*1430 NAND2_362
*1431 N1390
*1432 NAND2_350
*1433 N1240
*1434 N1387
*1435 NAND2_347
*1436 N1433
*1437 NAND2_361
*1438 N1376
*1439 NAND2_343
*1440 N1227
*1441 N1370
*1442 NAND2_341
*1443 N1222
*1444 N1345
*1445 NAND2_329
*1446 N1412
*1447 NAND2_357
*1448 N1393
*1449 NAND2_351
*1450 N1161
*1451 N1379
*1452 NAND2_344
*1453 N1157
*1454 N1373
*1455 NAND2_342
*1456 N1156
*1457 N1364
*1458 NAND2_339
*1459 N1154
*1460 N1367
*1461 NAND2_340
*1462 N1153
*1463 N1361
*1464 NAND2_338
*1465 N1152
*1466 N1358
*1467 NAND2_337
*1468 N1151
*1469 N1352
*1470 NAND2_335
*1471 N1149
*1472 N1355
*1473 NAND2_336
*1474 N1148
*1475 N1344
*1476 NAND2_328
*1477 N646
*1478 NOT1_216
*1479 BUFF1_111
*1480 N1398
*1481 NOT1_354
*1482 N640
*1483 NOT1_213
*1484 BUFF1_109
*1485 N1396
*1486 NOT1_352
*1487 N637
*1488 NOT1_206
*1489 BUFF1_108
*1490 N1388
*1491 NOT1_348
*1492 N634
*1493 NOT1_203
*1494 BUFF1_107
*1495 N1386
*1496 NOT1_346
*1497 N1264
*1498 NOT1_311
*1499 N649
*1500 NOT1_155
*1501 BUFF1_112
*1502 N1346
*1503 NOT1_330
*1504 N1246
*1505 NAND2_305
*1506 N1007
*1507 N1243
*1508 NAND2_304
*1509 N1004
*1510 N1328
*1511 NAND2_326
*1512 N1242
*1513 NAND2_303
*1514 N1327
*1515 NAND2_325
*1516 N1239
*1517 NAND2_300
*1518 N1235
*1519 NAND2_298
*1520 N993
*1521 N1232
*1522 NAND2_297
*1523 N990
*1524 N1322
*1525 NAND2_324
*1526 N1231
*1527 NAND2_296
*1528 N1318
*1529 NAND2_322
*1530 N1229
*1531 NAND2_294
*1532 N1317
*1533 NAND2_321
*1534 N1226
*1535 NAND2_291
*1536 N1316
*1537 NAND2_320
*1538 N1224
*1539 NAND2_289
*1540 N1315
*1541 NAND2_319
*1542 N1221
*1543 NAND2_286
*1544 N1314
*1545 NAND2_318
*1546 N1216
*1547 NAND2_281
*1548 N1313
*1549 NAND2_317
*1550 N1214
*1551 NAND2_279
*1552 N1312
*1553 NAND2_316
*1554 N1212
*1555 NAND2_277
*1556 N1311
*1557 NAND2_315
*1558 N1210
*1559 NAND2_275
*1560 N1310
*1561 NAND2_314
*1562 N1208
*1563 NAND2_273
*1564 N1309
*1565 NAND2_313
*1566 N1206
*1567 NAND2_271
*1568 N1249
*1569 NAND2_306
*1570 N894
*1571 N1267
*1572 NAND2_312
*1573 N1160
*1574 NAND2_261
*1575 N1162
*1576 NAND2_263
*1577 N733
*1578 NOT1_210
*1579 BUFF1_140
*1580 N1241
*1581 NOT1_302
*1582 N730
*1583 NOT1_208
*1584 BUFF1_139
*1585 N1238
*1586 NOT1_299
*1587 N628
*1588 NOT1_199
*1589 BUFF1_105
*1590 N1230
*1591 NOT1_295
*1592 N1158
*1593 NAND2_259
*1594 N715
*1595 NOT1_197
*1596 BUFF1_134
*1597 N1228
*1598 NOT1_293
*1599 N712
*1600 NOT1_195
*1601 BUFF1_133
*1602 N1225
*1603 NOT1_290
*1604 N709
*1605 NOT1_193
*1606 BUFF1_132
*1607 N1223
*1608 NOT1_288
*1609 N706
*1610 NOT1_191
*1611 BUFF1_131
*1612 N1220
*1613 NOT1_285
*1614 N703
*1615 NOT1_187
*1616 BUFF1_130
*1617 N1215
*1618 NOT1_280
*1619 N700
*1620 NOT1_185
*1621 BUFF1_129
*1622 N1213
*1623 NOT1_278
*1624 N697
*1625 NOT1_183
*1626 BUFF1_128
*1627 N1211
*1628 NOT1_276
*1629 N694
*1630 NOT1_181
*1631 BUFF1_127
*1632 N1209
*1633 NOT1_274
*1634 N691
*1635 NOT1_179
*1636 BUFF1_126
*1637 N1207
*1638 NOT1_272
*1639 N688
*1640 NOT1_177
*1641 BUFF1_125
*1642 N1205
*1643 NOT1_270
*1644 N631
*1645 NOT1_153
*1646 BUFF1_106
*1647 N1159
*1648 NOT1_260
*1649 N1150
*1650 NAND2_251
*1651 N910
*1652 NAND2_163
*1653 N907
*1654 NAND2_162
*1655 N1132
*1656 NAND2_247
*1657 N1133
*1658 NAND2_248
*1659 N1130
*1660 NAND2_245
*1661 N1131
*1662 NAND2_246
*1663 N1128
*1664 NAND2_243
*1665 N1129
*1666 NAND2_244
*1667 N1049
*1668 BUFF1_232
*1669 N1001
*1670 N1046
*1671 BUFF1_231
*1672 N997
*1673 N1121
*1674 NAND2_241
*1675 N1122
*1676 NAND2_242
*1677 N1119
*1678 NAND2_239
*1679 N1120
*1680 NAND2_240
*1681 N981
*1682 BUFF1_198
*1683 N984
*1684 N1043
*1685 BUFF1_230
*1686 N980
*1687 N1040
*1688 BUFF1_229
*1689 N976
*1690 N1037
*1691 BUFF1_228
*1692 N972
*1693 N1034
*1694 BUFF1_227
*1695 N968
*1696 N1025
*1697 BUFF1_224
*1698 N958
*1699 N1022
*1700 BUFF1_223
*1701 N954
*1702 N1019
*1703 BUFF1_222
*1704 N950
*1705 N1016
*1706 BUFF1_221
*1707 N946
*1708 N1013
*1709 BUFF1_220
*1710 N942
*1711 N1010
*1712 BUFF1_219
*1713 N938
*1714 N922
*1715 NAND4_173
*1716 N923
*1717 N921
*1718 NAND4_172
*1719 N1067
*1720 NAND2_237
*1721 N1068
*1722 NAND2_238
*1723 N985
*1724 BUFF1_200
*1725 N892
*1726 N1063
*1727 NAND2_235
*1728 N1064
*1729 NAND2_236
*1730 N1054
*1731 NAND2_233
*1732 N1055
*1733 NAND2_234
*1734 N748
*1735 NOT1_217
*1736 BUFF1_145
*1737 N1009
*1738 NOT1_218
*1739 N751
*1740 BUFF1_146
*1741 N1008
*1742 N742
*1743 NOT1_214
*1744 BUFF1_143
*1745 N1006
*1746 NOT1_215
*1747 N745
*1748 BUFF1_144
*1749 N1005
*1750 N736
*1751 NOT1_211
*1752 BUFF1_141
*1753 N1003
*1754 NOT1_212
*1755 N739
*1756 BUFF1_142
*1757 N1002
*1758 N724
*1759 NOT1_204
*1760 AND3_137
*1761 N992
*1762 NOT1_205
*1763 N727
*1764 BUFF1_138
*1765 N991
*1766 N718
*1767 NOT1_201
*1768 BUFF1_135
*1769 N989
*1770 NOT1_202
*1771 N721
*1772 BUFF1_136
*1773 N988
*1774 N652
*1775 NOT1_156
*1776 BUFF1_113
*1777 N896
*1778 NOT1_157
*1779 N655
*1780 AND3_114
*1781 N895
*1782 N622
*1783 NOT1_151
*1784 BUFF1_103
*1785 N891
*1786 NOT1_152
*1787 N625
*1788 BUFF1_104
*1789 N890
*1790 N616
*1791 NOT1_149
*1792 BUFF1_101
*1793 N889
*1794 NOT1_150
*1795 N619
*1796 BUFF1_102
*1797 N888
*1798 N598
*1799 BUFF1_95
*1800 N589
*1801 BUFF1_92
*1802 N583
*1803 BUFF1_90
*1804 N577
*1805 BUFF1_88
*1806 N571
*1807 BUFF1_86
*1808 N565
*1809 BUFF1_84
*1810 N559
*1811 BUFF1_82
*1812 N595
*1813 BUFF1_94
*1814 N592
*1815 AND3_93
*1816 N586
*1817 AND2_91
*1818 N580
*1819 BUFF1_89
*1820 N574
*1821 AND2_87
*1822 N568
*1823 BUFF1_85
*1824 N562
*1825 BUFF1_83
*1826 N556
*1827 BUFF1_81
*1828 N303
*1829 N603
*1830 NAND2_98
*1831 N280
*1832 NOT1_30
*1833 N297
*1834 BUFF1_33
*1835 N326
*1836 BUFF1_40
*1837 N277
*1838 NOT1_29
*1839 N608
*1840 NAND2_99
*1841 N612
*1842 NAND2_100
*1843 N225
*1844 NOT1_10
*1845 N212
*1846 NOT1_7
*1847 N243
*1848 NOT1_15
*1849 N216
*1850 NOT1_8
*1851 N209
*1852 NOT1_6
*1853 N220
*1854 NOT1_9
*1855 N253
*1856 NOT1_19
*1857 N319
*1858 NOT1_39
*1859 N206
*1860 NOT1_5
*1861 N201
*1862 NOT1_4
*1863 N235
*1864 NOT1_13
*1865 N247
*1866 NOT1_16
*1867 N197
*1868 NOT1_3
*1869 N252
*1870 NAND2_18
*1871 N316
*1872 BUFF1_38
*1873 N251
*1874 NAND2_17
*1875 N272
*1876 N269
*1877 N266
*1878 N263
*1879 N257
*1880 BUFF1_21
*1881 N232
*1882 NOT1_12
*1883 N229
*1884 NOT1_11
*1885 N194
*1886 NOT1_2
*1887 N190
*1888 NOT1_1
*1889 N239
*1890 NOT1_14
*1891 N256
*1892 NOT1_20
*1893 N300
*1894 NOT1_34
*1895 N260
*1896 BUFF1_22
*1897 N306
*1898 N331
*1899 BUFF1_41

*PORTS
*1 I *L 0.0 *S 0.0 0.0
*2 I *L 0.0 *S 0.0 0.0
*3 I *L 0.0 *S 0.0 0.0
*4 I *L 0.0 *S 0.0 0.0
*5 I *L 0.0 *S 0.0 0.0
*6 I *L 0.0 *S 0.0 0.0
*7 I *L 0.0 *S 0.0 0.0
*8 I *L 0.0 *S 0.0 0.0
*9 I *L 0.0 *S 0.0 0.0
*10 I *L 0.0 *S 0.0 0.0
*11 I *L 0.0 *S 0.0 0.0
*12 I *L 0.0 *S 0.0 0.0
*13 I *L 0.0 *S 0.0 0.0
*14 I *L 0.0 *S 0.0 0.0
*15 I *L 0.0 *S 0.0 0.0
*16 I *L 0.0 *S 0.0 0.0
*17 I *L 0.0 *S 0.0 0.0
*18 I *L 0.0 *S 0.0 0.0
*19 I *L 0.0 *S 0.0 0.0
*20 I *L 0.0 *S 0.0 0.0
*21 I *L 0.0 *S 0.0 0.0
*22 I *L 0.0 *S 0.0 0.0
*23 I *L 0.0 *S 0.0 0.0
*24 I *L 0.0 *S 0.0 0.0
*25 I *L 0.0 *S 0.0 0.0
*26 I *L 0.0 *S 0.0 0.0
*27 I *L 0.0 *S 0.0 0.0
*28 I *L 0.0 *S 0.0 0.0
*29 O *L 0.0 *S 0.0 0.0
*30 I *L 0.0 *S 0.0 0.0
*31 I *L 0.0 *S 0.0 0.0
*32 I *L 0.0 *S 0.0 0.0
*33 I *L 0.0 *S 0.0 0.0
*34 I *L 0.0 *S 0.0 0.0
*35 I *L 0.0 *S 0.0 0.0
*36 I *L 0.0 *S 0.0 0.0
*37 O *L 0.0 *S 0.0 0.0
*38 O *L 0.0 *S 0.0 0.0
*39 O *L 0.0 *S 0.0 0.0
*40 O *L 0.0 *S 0.0 0.0
*41 O *L 0.0 *S 0.0 0.0
*42 O *L 0.0 *S 0.0 0.0
*43 O *L 0.0 *S 0.0 0.0
*44 O *L 0.0 *S 0.0 0.0
*45 O *L 0.0 *S 0.0 0.0
*46 O *L 0.0 *S 0.0 0.0
*47 O *L 0.0 *S 0.0 0.0
*48 O *L 0.0 *S 0.0 0.0
*49 O *L 0.0 *S 0.0 0.0
*50 O *L 0.0 *S 0.0 0.0
*51 O *L 0.0 *S 0.0 0.0
*52 O *L 0.0 *S 0.0 0.0
*53 O *L 0.0 *S 0.0 0.0
*54 O *L 0.0 *S 0.0 0.0
*55 O *L 0.0 *S 0.0 0.0
*56 O *L 0.0 *S 0.0 0.0
*57 O *L 0.0 *S 0.0 0.0
*58 O *L 0.0 *S 0.0 0.0
*59 O *L 0.0 *S 0.0 0.0
*60 O *L 0.0 *S 0.0 0.0

*D_NET *61 0.8542385

*CONN
*I *62:A1 I *L 1060.224 *C 5.415 9.33
*I *63:ZN O *L 0.0 *D NAND2_X1 *C 12.635 9.05
*N *61:3 *C 12.635 9.05
*N *61:4 *C 12.635 9.05
*N *61:5 *C 5.415 9.19
*N *61:6 *C 5.415 9.19
*N *61:7 *C 5.415 9.33
*N *61:8 *C 12.635 9.19

*CAP
1 *62:A1 0.0
2 *63:ZN 0.009277549
3 *61:3 0.02015993
4 *61:4 0.02390154
5 *61:5 0.385641
6 *61:6 0.005701627
7 *61:7 0.00571467
8 *61:8 0.4038422

*RES
1 *61:3 *63:ZN 22.5
2 *61:4 *61:3 22.5
3 *61:5 *61:6 22.5
4 *61:7 *62:A1 22.5
5 *61:6 *61:7 0.1311312
6 *61:5 *61:8 16.87745
7 *61:4 *61:8 0.1863238

*END

*D_NET *64 1.503058

*CONN
*I *62:A2 I *L 1092.433 *C 5.605 9.33
*I *65:ZN O *L 0.0 *D NAND2_X1 *C 5.415 15.21
*N *64:3 *C 5.605 9.33
*N *64:4 *C 5.605 9.61
*N *64:5 *C 5.605 9.61
*N *64:6 *C 2.895 9.61
*N *64:7 *C 2.895 9.61
*N *64:8 *C 2.895 15.21
*N *64:9 *C 2.895 15.21
*N *64:10 *C 5.415 15.21
*N *64:11 *C 5.415 15.21

*CAP
1 *62:A2 0.0
2 *65:ZN 0.01202313
3 *64:3 0.03774119
4 *64:4 0.169473
5 *64:5 0.03513061
6 *64:6 0.3537588
7 *64:7 0.1693989
8 *64:8 0.3537588
9 *64:9 0.179838
10 *64:10 0.1799121
11 *64:11 0.01202313

*RES
1 *64:3 *62:A2 22.5
2 *64:4 *64:5 22.5
3 *64:6 *64:7 22.5
4 *64:8 *64:9 22.5
5 *64:10 *64:11 22.5
6 *64:11 *65:ZN 22.5
7 *64:3 *64:5 0.4487384
8 *64:7 *64:4 6.884727
9 *64:9 *64:10 8.630529
10 *64:6 *64:8 10.22595

*END

*D_NET *53 1.458871

*CONN
*I *62:ZN O *L 0.0 *D AND2_X1 *C 5.94 8.91
*P *53 O *C 0.035 0.79
*N *53:3 *C 1.775 0.79
*N *53:4 *C 1.775 0.79
*N *53:5 *C 1.775 8.91
*N *53:6 *C 1.775 8.91
*N *53:7 *C 5.94 8.91
*N *53:8 *C 5.94 8.91

*CAP
1 *62:ZN 0.009956931
2 *53 0.1277878
3 *53:3 0.3635241
4 *53:4 0.1225186
5 *53:5 0.3635241
6 *53:6 0.2307641
7 *53:7 0.2308382
8 *53:8 0.009956931

*RES
1 *53:3 *53:4 22.5
2 *53:5 *53:6 22.5
3 *53:7 *53:8 22.5
4 *53:8 *62:ZN 22.5
5 *53 *53:4 5.159108
6 *53:6 *53:7 9.579833
7 *53:3 *53:5 14.72514

*END

*D_NET *66 0.1883588

*CONN
*I *63:A1 I *L 1841.374 *C 12.825 9.33
*I *67:ZN O *L 0.0 *D NAND2_X1 *C 13.385 8.952
*N *66:3 *C 13.205 8.91
*N *66:4 *C 13.205 8.91
*N *66:5 *C 12.825 9.33
*N *66:6 *C 12.825 8.91

*CAP
1 *63:A1 0.0
2 *67:ZN 0.02644771
3 *66:3 0.03697458
4 *66:4 0.02386322
5 *66:5 0.02946489
6 *66:6 0.07160845

*RES
1 *66:3 *66:4 22.5
2 *66:5 *63:A1 22.5
3 *66:4 *67:ZN 0.4166916
4 *66:6 *66:3 1.010288
5 *66:6 *66:5 1.114341

*END

*D_NET *68 0.3219364

*CONN
*I *63:A2 I *L 1883.517 *C 12.445 9.33
*I *69:ZN O *L 0.0 *D NAND2_X1 *C 13.585 10.31
*N *68:3 *C 12.445 9.33
*N *68:4 *C 12.445 9.61
*N *68:5 *C 12.445 9.61
*N *68:6 *C 13.585 9.61
*N *68:7 *C 13.585 9.61
*N *68:8 *C 13.585 10.31

*CAP
1 *63:A2 0.0
2 *69:ZN 0.0
3 *68:3 0.03008522
4 *68:4 0.0712525
5 *68:5 0.02747464
6 *68:6 0.0712525
7 *68:7 0.05963049
8 *68:8 0.06224107

*RES
1 *68:3 *63:A2 22.5
2 *68:4 *68:5 22.5
3 *68:6 *68:7 22.5
4 *68:8 *69:ZN 22.5
5 *68:3 *68:5 0.6482516
6 *68:7 *68:8 2.067649
7 *68:4 *68:6 2.717539

*END

*D_NET *70 2.048088

*CONN
*I *69:A1 I *L 1841.374 *C 13.775 10.87
*I *71:A I *L 1938.113 *C 14.535 12.13
*I *72:ZN O *L 0.0 *D NAND2_X1 *C 26.875 11.247
*N *70:4 *C 14.535 12.13
*N *70:5 *C 26.695 11.29
*N *70:6 *C 26.695 11.29
*N *70:7 *C 26.695 11.85
*N *70:8 *C 26.695 11.85
*N *70:9 *C 14.535 11.85
*N *70:10 *C 14.535 11.85
*N *70:11 *C 13.775 10.87
*N *70:12 *C 13.775 11.57
*N *70:13 *C 13.775 11.57
*N *70:14 *C 14.535 11.57
*N *70:15 *C 14.535 11.57

*CAP
1 *69:A1 0.0
2 *71:A 0.0
3 *72:ZN 0.02122712
4 *70:4 0.02674244
5 *70:5 0.05847097