*SPEF "1481-1998"
*DESIGN "c2670"
*DATE "Wed Jul  2 15:15:26 2014"
*VENDOR "Synopsys, Inc."
*PROGRAM "icc_shell"
*VERSION "G-2012.06-ICC-SP5"
*DESIGN_FLOW "PIN_CAP NONE"
*DIVIDER /
*DELIMITER :
*BUS_DELIMITER [ ]
*T_UNIT 1 NS
*C_UNIT 1 FF
*R_UNIT 1 OHM
*L_UNIT 1 HENRY

*NAME_MAP
*1 N5
*2 N4
*3 N3
*4 N2
*5 N1
*6 VDD
*7 VSS
*8 N19
*9 N16
*10 N15
*11 N14
*12 N11
*13 N8
*14 N7
*15 N6
*16 N27
*17 N26
*18 N25
*19 N24
*20 N23
*21 N22
*22 N21
*23 N20
*24 N37
*25 N36
*26 N35
*27 N34
*28 N33
*29 N32
*30 N29
*31 N28
*32 N51
*33 N50
*34 N49
*35 N48
*36 N47
*37 N44
*38 N43
*39 N40
*40 N61
*41 N60
*42 N57
*43 N56
*44 N55
*45 N54
*46 N53
*47 N52
*48 N69
*49 N68
*50 N67
*51 N66
*52 N65
*53 N64
*54 N63
*55 N62
*56 N79
*57 N78
*58 N77
*59 N76
*60 N75
*61 N74
*62 N73
*63 N72
*64 N89
*65 N88
*66 N87
*67 N86
*68 N85
*69 N82
*70 N81
*71 N80
*72 N99
*73 N96
*74 N95
*75 N94
*76 N93
*77 N92
*78 N91
*79 N90
*80 N107
*81 N106
*82 N105
*83 N104
*84 N103
*85 N102
*86 N101
*87 N100
*88 N117
*89 N116
*90 N115
*91 N114
*92 N113
*93 N112
*94 N111
*95 N108
*96 N127
*97 N126
*98 N125
*99 N124
*100 N123
*101 N120
*102 N119
*103 N118
*104 N137
*105 N136
*106 N135
*107 N132
*108 N131
*109 N130
*110 N129
*111 N128
*112 N227
*113 N224
*114 N219
*115 N142
*116 N141
*117 N140
*118 N139
*119 N138
*120 N256
*121 N253
*122 N246
*123 N241
*124 N237
*125 N234
*126 N231
*127 N230
*128 N278
*129 N275
*130 N272
*131 N269
*132 N266
*133 N263
*134 N262
*135 N259
*136 N305
*137 N301
*138 N297
*139 N294
*140 N290
*141 N287
*142 N284
*143 N281
*144 N331
*145 N328
*146 N325
*147 N322
*148 N319
*149 N316
*150 N313
*151 N309
*152 N355
*153 N352
*154 N349
*155 N346
*156 N343
*157 N340
*158 N337
*159 N334
*160 N150_I
*161 N149_I
*162 N148_I
*163 N147_I
*164 N146_I
*165 N145_I
*166 N144_I
*167 N143_I
*168 N158_I
*169 N157_I
*170 N156_I
*171 N155_I
*172 N154_I
*173 N153_I
*174 N152_I
*175 N151_I
*176 N166_I
*177 N165_I
*178 N164_I
*179 N163_I
*180 N162_I
*181 N161_I
*182 N160_I
*183 N159_I
*184 N174_I
*185 N173_I
*186 N172_I
*187 N171_I
*188 N170_I
*189 N169_I
*190 N168_I
*191 N167_I
*192 N182_I
*193 N181_I
*194 N180_I
*195 N179_I
*196 N178_I
*197 N177_I
*198 N176_I
*199 N175_I
*200 N190_I
*201 N189_I
*202 N188_I
*203 N187_I
*204 N186_I
*205 N185_I
*206 N184_I
*207 N183_I
*208 N198_I
*209 N197_I
*210 N196_I
*211 N195_I
*212 N194_I
*213 N193_I
*214 N192_I
*215 N191_I
*216 N206_I
*217 N205_I
*218 N204_I
*219 N203_I
*220 N202_I
*221 N201_I
*222 N200_I
*223 N199_I
*224 N214_I
*225 N213_I
*226 N212_I
*227 N211_I
*228 N210_I
*229 N209_I
*230 N208_I
*231 N207_I
*232 N419
*233 N401
*234 N400
*235 N398
*236 N218_I
*237 N217_I
*238 N216_I
*239 N215_I
*240 N490
*241 N489
*242 N488
*243 N487
*244 N458
*245 N457
*246 N456
*247 N420
*248 N1026
*249 N805
*250 N799
*251 N792
*252 N494
*253 N493
*254 N492
*255 N491
*256 N1817
*257 N1816
*258 N1726
*259 N1448
*260 N1277
*261 N1269
*262 N1029
*263 N1028
*264 N2010
*265 N1971
*266 N1970
*267 N1969
*268 N1821
*269 N1820
*270 N1819
*271 N1818
*272 N2388
*273 N2387
*274 N2022
*275 N2020
*276 N2018
*277 N2016
*278 N2014
*279 N2012
*280 N2970
*281 N2925
*282 N2891
*283 N2644
*284 N2643
*285 N2496
*286 N2390
*287 N2389
*288 N3809
*289 N3804
*290 N3803
*291 N3671
*292 N3546
*293 N3079
*294 N3038
*295 N2971
*296 N146_O
*297 N145_O
*298 N144_O
*299 N143_O
*300 N3882
*301 N3881
*302 N3875
*303 N3851
*304 N154_O
*305 N153_O
*306 N152_O
*307 N151_O
*308 N150_O
*309 N149_O
*310 N148_O
*311 N147_O
*312 N162_O
*313 N161_O
*314 N160_O
*315 N159_O
*316 N158_O
*317 N157_O
*318 N156_O
*319 N155_O
*320 N170_O
*321 N169_O
*322 N168_O
*323 N167_O
*324 N166_O
*325 N165_O
*326 N164_O
*327 N163_O
*328 N178_O
*329 N177_O
*330 N176_O
*331 N175_O
*332 N174_O
*333 N173_O
*334 N172_O
*335 N171_O
*336 N186_O
*337 N185_O
*338 N184_O
*339 N183_O
*340 N182_O
*341 N181_O
*342 N180_O
*343 N179_O
*344 N194_O
*345 N193_O
*346 N192_O
*347 N191_O
*348 N190_O
*349 N189_O
*350 N188_O
*351 N187_O
*352 N202_O
*353 N201_O
*354 N200_O
*355 N199_O
*356 N198_O
*357 N197_O
*358 N196_O
*359 N195_O
*360 N210_O
*361 N209_O
*362 N208_O
*363 N207_O
*364 N206_O
*365 N205_O
*366 N204_O
*367 N203_O
*368 N218_O
*369 N217_O
*370 N216_O
*371 N215_O
*372 N214_O
*373 N213_O
*374 N212_O
*375 N211_O
*376 BUFF1_1269
*377 BUFF1_1268
*378 BUFF1_1267
*379 BUFF1_1266
*380 BUFF1_1265
*381 BUFF1_1264
*382 BUFF1_1263
*383 BUFF1_1262
*384 BUFF1_1261
*385 BUFF1_1260
*386 BUFF1_1259
*387 BUFF1_1258
*388 BUFF1_1257
*389 BUFF1_1256
*390 BUFF1_1255
*391 BUFF1_1254
*392 BUFF1_1253
*393 BUFF1_1252
*394 BUFF1_1251
*395 BUFF1_1250
*396 BUFF1_1249
*397 BUFF1_1248
*398 BUFF1_1247
*399 BUFF1_1246
*400 BUFF1_1245
*401 BUFF1_1244
*402 BUFF1_1243
*403 BUFF1_1242
*404 BUFF1_1241
*405 BUFF1_1240
*406 BUFF1_1239
*407 BUFF1_1238
*408 BUFF1_1237
*409 BUFF1_1236
*410 BUFF1_1235
*411 BUFF1_1234
*412 BUFF1_1233
*413 BUFF1_1232
*414 BUFF1_1231
*415 BUFF1_1230
*416 BUFF1_1229
*417 BUFF1_1228
*418 BUFF1_1227
*419 BUFF1_1226
*420 BUFF1_1225
*421 BUFF1_1224
*422 BUFF1_1223
*423 BUFF1_1222
*424 BUFF1_1221
*425 BUFF1_1220
*426 BUFF1_1219
*427 BUFF1_1218
*428 BUFF1_1217
*429 BUFF1_1216
*430 BUFF1_1215
*431 BUFF1_1214
*432 BUFF1_1213
*433 BUFF1_1212
*434 BUFF1_1211
*435 BUFF1_1210
*436 BUFF1_1209
*437 BUFF1_1208
*438 BUFF1_1207
*439 BUFF1_1206
*440 BUFF1_1205
*441 BUFF1_1204
*442 BUFF1_1203
*443 BUFF1_1202
*444 BUFF1_1201
*445 BUFF1_1200
*446 BUFF1_1199
*447 BUFF1_1198
*448 BUFF1_1197
*449 BUFF1_1196
*450 BUFF1_1195
*451 BUFF1_1194
*452 N3877
*453 NOT1_1193
*454 BUFF1_1192
*455 AND3_1191
*456 N3826
*457 AND3_1171
*458 N3876
*459 AND3_1190
*460 N1591
*461 AND4_371
*462 AND4_370
*463 BUFF1_343
*464 AND2_322
*465 N2826
*466 NOT1_806
*467 NAND2_763
*468 N3028
*469 NOT1_829
*470 N3870
*471 NOT1_1189
*472 OR2_1188
*473 N3869
*474 AND2_1187
*475 N3864
*476 NOT1_1186
*477 N3859
*478 OR2_1185
*479 N3857
*480 AND2_1183
*481 N3858
*482 AND2_1184
*483 N3852
*484 NAND2_1182
*485 N3840
*486 OR2_1179
*487 N3843
*488 BUFF1_1181
*489 OR2_1180
*490 N3839
*491 AND2_1178
*492 N3837
*493 AND2_1176
*494 N3838
*495 AND2_1177
*496 N3835
*497 AND2_1174
*498 N3775
*499 NOT1_1159
*500 OR4_1143
*501 N3836
*502 NOT1_1175
*503 N3762
*504 NOT1_1153
*505 OR4_1139
*506 N3834
*507 NOT1_1173
*508 N3822
*509 NAND2_1169
*510 N3827
*511 OR2_1172
*512 N3818
*513 NAND2_1165
*514 N3823
*515 OR2_1170
*516 N3820
*517 OR5_1167
*518 N3821
*519 AND2_1168
*520 N3727
*521 NOT1_1113
*522 N3819
*523 NOT1_1166
*524 N2841
*525 NOT1_805
*526 NAND2_771
*527 N3816
*528 OR5_1163
*529 N3817
*530 AND2_1164
*531 N3812
*532 N3774
*533 NOT1_1142
*534 N3813
*535 AND5_1160
*536 N3811
*537 OR3_1158
*538 extra8
*539 OR5_1167_A
*540 N3815
*541 AND5_1162
*542 N3312
*543 AND2_942
*544 N3748
*545 AND2_1132
*546 N3749
*547 AND3_1133
*548 N3814
*549 AND4_1161
*550 N3790
*551 BUFF1_1157
*552 AND2_1147
*553 N3805
*554 N3761
*555 NOT1_1138
*556 N3806
*557 AND5_1154
*558 N3802
*559 OR3_1150
*560 extra7
*561 OR5_1163_A
*562 N3808
*563 AND5_1156
*564 N3299
*565 AND2_935
*566 N3735
*567 AND2_1121
*568 N3736
*569 AND3_1122
*570 N3807
*571 AND4_1155
*572 extra6
*573 AND5_1162_A
*574 N3654
*575 AND5_1160_A
*576 NAND2_1089
*577 N3771
*578 NAND2_1141
*579 N3767
*580 NAND2_1140
*581 N3648
*582 NAND2_1088
*583 N3517
*584 AND2_1032
*585 N3570
*586 AND2_1058
*587 extra5
*588 N3743
*589 NAND2_1127
*590 N3499
*591 AND2_1016
*592 N3793
*593 AND2_1148
*594 N3794
*595 AND3_1149
*596 extra4
*597 AND5_1156_A
*598 N3622
*599 AND5_1154_A
*600 NAND2_1077
*601 N3758
*602 NAND2_1137
*603 N3754
*604 NAND2_1136
*605 N3616
*606 NAND2_1076
*607 N3498
*608 AND2_1015
*609 N3559
*610 AND2_1050
*611 extra3
*612 N3730
*613 NAND2_1116
*614 N3780
*615 BUFF1_1152
*616 BUFF1_1151
*617 OR2_1146
*618 N3479
*619 AND2_998
*620 N3778
*621 AND2_1144
*622 N3779
*623 AND3_1145
*624 N3740
*625 NAND2_1124
*626 N3737
*627 NAND2_1123
*628 N3428
*629 AND2_986
*630 N3500
*631 AND2_1017
*632 N3750
*633 NOT1_1134
*634 N800
*635 AND2_1071
*636 NOT1_94
*637 N2125
*638 AND2_467
*639 N3753
*640 AND2_1135
*641 N3726
*642 NAND2_1112
*643 N3723
*644 NAND2_1111
*645 N3409
*646 AND2_978
*647 N3480
*648 AND2_999
*649 N3304
*650 AND2_938
*651 N3745
*652 AND2_1129
*653 N3746
*654 AND3_1130
*655 N3747
*656 AND4_1131
*657 N3744
*658 AND4_1128
*659 N3742
*660 NAND2_1126
*661 N3719
*662 NAND2_1107
*663 N3741
*664 NAND2_1125
*665 N3717
*666 NAND2_1105
*667 N3291
*668 AND2_931
*669 N3732
*670 AND2_1118
*671 N3733
*672 AND3_1119
*673 N3734
*674 AND4_1120
*675 N3731
*676 AND4_1117
*677 N3729
*678 NAND2_1115
*679 N3694
*680 NAND2_1100
*681 N3728
*682 NAND2_1114
*683 N3692
*684 NAND2_1098
*685 N3722
*686 NAND2_1110
*687 AND2_573
*688 AND2_468
*689 AND2_376
*690 AND2_32
*691 NOT1_31
*692 N3721
*693 NAND2_1109
*694 N3569
*695 AND2_1057
*696 N3314
*697 AND2_943
*698 N3644
*699 NAND2_1086
*700 N3635
*701 NAND2_1084
*702 N3309
*703 AND2_941
*704 N3640
*705 NAND2_1085
*706 N3308
*707 AND2_940
*708 N3306
*709 AND2_939
*710 N3647
*711 NAND2_1087
*712 N3720
*713 NAND2_1108
*714 N3662
*715 NAND2_1091
*716 N3397
*717 NOT1_1031
*718 BUFF1_970
*719 N3718
*720 NOT1_1106
*721 N3394
*722 NOT1_1030
*723 BUFF1_969
*724 N3716
*725 NOT1_1104
*726 N3697
*727 NAND2_1103
*728 N3633
*729 NAND2_1082
*730 N3696
*731 NAND2_1102
*732 N3632
*733 NAND2_1081
*734 N3558
*735 AND2_1049
*736 N3301
*737 AND2_936
*738 N3612
*739 NAND2_1074
*740 N3603
*741 NAND2_1072
*742 N3296
*743 AND2_934
*744 N3608
*745 NAND2_1073
*746 N3295
*747 AND2_933
*748 N3293
*749 AND2_932
*750 N3615
*751 NAND2_1075
*752 N3695
*753 NAND2_1101
*754 N3630
*755 NAND2_1079
*756 N3367
*757 NOT1_1014
*758 BUFF1_962
*759 N3693
*760 NOT1_1099
*761 N3364
*762 NOT1_1013
*763 BUFF1_961
*764 N3691
*765 NOT1_1097
*766 N3600
*767 BUFF1_1096
*768 N3670
*769 NAND2_1095
*770 N3598
*771 NAND2_1069
*772 N3669
*773 NAND2_1094
*774 N3597
*775 NAND2_1068
*776 N3668
*777 NAND2_1093
*778 N3595
*779 NAND2_1066
*780 N3667
*781 NAND2_1092
*782 N3593
*783 NAND2_1064
*784 N2481
*785 NOT1_682
*786 BUFF1_619
*787 N3661
*788 NOT1_1090
*789 N3588
*790 BUFF1_1062
*791 N3515
*792 N3585
*793 BUFF1_1061
*794 N3513
*795 N2216
*796 NOT1_581
*797 BUFF1_501
*798 N3634
*799 NOT1_1083
*800 N2478
*801 NOT1_681
*802 BUFF1_618
*803 N3631
*804 NOT1_1080
*805 N2475
*806 NOT1_678
*807 BUFF1_617
*808 N3629
*809 NOT1_1078
*810 N3579
*811 BUFF1_1060
*812 N3496
*813 N3576
*814 BUFF1_1059
*815 N3494
*816 N2213
*817 NOT1_570
*818 BUFF1_500
*819 N3599
*820 NOT1_1070
*821 N2472
*822 NOT1_668
*823 BUFF1_616
*824 N3596
*825 NOT1_1067
*826 N3241
*827 NOT1_977
*828 NAND2_911
*829 N3594
*830 NOT1_1065
*831 N3238
*832 NOT1_976
*833 NAND2_910
*834 N3592
*835 NOT1_1063
*836 N3543
*837 BUFF1_1040
*838 N2656
*839 N3568
*840 NAND2_1056
*841 N3512
*842 NAND2_1029
*843 N3567
*844 NAND2_1055
*845 N3510
*846 NAND2_1027
*847 N3566
*848 NAND2_1054
*849 N3508
*850 NAND2_1025
*851 N3565
*852 NAND2_1053
*853 N3506
*854 NAND2_1023
*855 N3564
*856 NAND2_1052
*857 N3504
*858 NAND2_1021
*859 N3563
*860 NAND2_1051
*861 N3502
*862 NAND2_1019
*863 N3540
*864 BUFF1_1039
*865 N2403
*866 N3537
*867 BUFF1_1038
*868 N2655
*869 N3534
*870 BUFF1_1037
*871 N2645
*872 N3557
*873 NAND2_1048
*874 N3493
*875 NAND2_1012
*876 N3556
*877 NAND2_1047
*878 N3491
*879 NAND2_1010
*880 N3555
*881 NAND2_1046
*882 N3489
*883 NAND2_1008
*884 N3554
*885 NAND2_1045
*886 N3487
*887 NAND2_1006
*888 N3553
*889 NAND2_1044
*890 N3485
*891 NAND2_1004
*892 N3552
*893 NAND2_1043
*894 N3483
*895 NAND2_1002
*896 N3551
*897 NOT1_1042
*898 N3531
*899 BUFF1_1036
*900 N2376
*901 N3528
*902 BUFF1_1035
*903 N2630
*904 N3525
*905 NAND2_1034
*906 N3406
*907 N3522
*908 NAND2_1033
*909 N3405
*910 N3456
*911 AND2_995
*912 N3459
*913 AND2_996
*914 N3450
*915 AND2_993
*916 N3453
*917 AND2_994
*918 N3110
*919 NOT1_869
*920 N3113
*921 NOT1_870
*922 N3277
*923 NOT1_992
*924 BUFF1_923
*925 N3511
*926 NOT1_1028
*927 N3274
*928 NOT1_991
*929 BUFF1_922
*930 N3509
*931 NOT1_1026
*932 N3271
*933 NOT1_990
*934 BUFF1_921
*935 N3507
*936 NOT1_1024
*937 N3268
*938 NOT1_989
*939 BUFF1_920
*940 N3505
*941 NOT1_1022
*942 N3265
*943 NOT1_988
*944 BUFF1_919
*945 N3503
*946 NOT1_1020
*947 N3262
*948 NOT1_987
*949 BUFF1_918
*950 N3501
*951 NOT1_1018
*952 N3088
*953 NOT1_867
*954 N3091
*955 NOT1_868
*956 N3259
*957 NOT1_985
*958 BUFF1_917
*959 N3492
*960 NOT1_1011
*961 N3256
*962 NOT1_984
*963 BUFF1_916
*964 N3490
*965 NOT1_1009
*966 N3253
*967 NOT1_983
*968 BUFF1_915
*969 N3488
*970 NOT1_1007
*971 N3250
*972 NOT1_982
*973 BUFF1_914
*974 N3486
*975 NOT1_1005
*976 N3247
*977 NOT1_981
*978 BUFF1_913
*979 N3484
*980 NOT1_1003
*981 N3244
*982 NOT1_980
*983 BUFF1_912
*984 N3482
*985 NOT1_1001
*986 N3481
*987 NAND2_1000
*988 N3478
*989 OR2_1041
*990 AND2_997
*991 N1813
*992 AND2_361
*993 N3330
*994 OR2_949
*995 N3324
*996 OR2_947
*997 N3327
*998 OR2_948
*999 N3321
*1000 OR2_946
*1001 N3315
*1002 OR2_944
*1003 N3318
*1004 OR2_945
*1005 N3404
*1006 NOR2_975
*1007 N3403
*1008 NOR2_974
*1009 N3402
*1010 NOR2_973
*1011 N3401
*1012 NOR2_972
*1013 N2135
*1014 BUFF1_603
*1015 NOT1_471
*1016 N3390
*1017 BUFF1_968
*1018 N3440
*1019 N3386
*1020 BUFF1_967
*1021 N3438
*1022 N3382
*1023 BUFF1_966
*1024 N3436
*1025 N3378
*1026 BUFF1_965
*1027 N3434
*1028 N3374
*1029 BUFF1_964
*1030 N3432
*1031 N3370
*1032 BUFF1_963
*1033 N3430
*1034 N1841
*1035 BUFF1_498
*1036 BUFF1_492
*1037 NOT1_379
*1038 N2128
*1039 BUFF1_610
*1040 BUFF1_602
*1041 NOT1_470
*1042 N3360
*1043 BUFF1_960
*1044 N3422
*1045 N3356
*1046 BUFF1_959
*1047 N3420
*1048 N3352
*1049 BUFF1_958
*1050 N3418
*1051 N3348
*1052 BUFF1_957
*1053 N3416
*1054 N3344
*1055 BUFF1_956
*1056 N3414
*1057 N3340
*1058 BUFF1_955
*1059 N3412
*1060 N3410
*1061 NAND2_979
*1062 N3289
*1063 NAND2_930
*1064 N3400
*1065 NAND2_971
*1066 N533
*1067 AND2_559
*1068 OR2_425
*1069 NOT1_30
*1070 N3337
*1071 OR2_954
*1072 N1195
*1073 AND2_878
*1074 AND2_877
*1075 BUFF1_160
*1076 N3336
*1077 OR2_953
*1078 N3335
*1079 OR2_952
*1080 N1190
*1081 AND2_872
*1082 AND2_871
*1083 BUFF1_159
*1084 N3334
*1085 OR2_951
*1086 N3302
*1087 OR2_937
*1088 N1836
*1089 BUFF1_496
*1090 BUFF1_490
*1091 NOT1_378
*1092 N2888
*1093 NOT1_842
*1094 NAND2_782
*1095 N3333
*1096 NOT1_950
*1097 N3288
*1098 OR2_929
*1099 N3284
*1100 AND3_927
*1101 N3194
*1102 AND3_895
*1103 N3283
*1104 AND3_926
*1105 N3193
*1106 AND3_894
*1107 N3282
*1108 AND3_925
*1109 N3192
*1110 AND3_893
*1111 N3281
*1112 AND3_924
*1113 N3191
*1114 AND3_892
*1115 N3195
*1116 NAND2_896
*1117 N3286
*1118 NAND2_928
*1119 N3157
*1120 N3160
*1121 N3163
*1122 AND2_879
*1123 N3166
*1124 AND2_880
*1125 N3169
*1126 AND2_881
*1127 N3172
*1128 AND2_882
*1129 N3137
*1130 N3140
*1131 N3143
*1132 AND2_873
*1133 N3146
*1134 AND2_874
*1135 N3149
*1136 AND2_875
*1137 N3152
*1138 AND2_876
*1139 N3231
*1140 AND2_909
*1141 N3065
*1142 AND2_854
*1143 N3230
*1144 AND2_908
*1145 N3064
*1146 AND2_853
*1147 N3223
*1148 AND2_907
*1149 N3054
*1150 AND2_845
*1151 N3222
*1152 AND2_906
*1153 N3053
*1154 AND2_844
*1155 N3180
*1156 NAND2_887
*1157 N3220
*1158 AND2_905
*1159 N3046
*1160 AND2_839
*1161 N3219
*1162 AND2_904
*1163 N3045
*1164 AND2_838
*1165 N3218
*1166 AND2_903
*1167 N3044
*1168 AND2_837
*1169 N3217
*1170 AND2_902
*1171 N3037
*1172 AND2_834
*1173 N3216
*1174 AND2_901
*1175 N3036
*1176 AND2_833
*1177 N3215
*1178 AND2_900
*1179 N3035
*1180 AND2_832
*1181 N3010
*1182 NOT1_823
*1183 N3013
*1184 NOT1_824
*1185 N3016
*1186 NOT1_825
*1187 N3019
*1188 NOT1_826
*1189 N3022
*1190 NOT1_827
*1191 N3025
*1192 NOT1_828
*1193 N3208
*1194 AND2_899
*1195 N3029
*1196 AND2_830
*1197 N2986
*1198 NOT1_813
*1199 N2989
*1200 NOT1_814
*1201 N2972
*1202 NOT1_807
*1203 N2975
*1204 NOT1_808
*1205 N2978
*1206 NOT1_809
*1207 N2981
*1208 NOT1_810
*1209 N3049
*1210 N3197
*1211 AND2_898
*1212 N3007
*1213 AND2_820
*1214 N2210
*1215 NOT1_569
*1216 BUFF1_499
*1217 N3196
*1218 NOT1_897
*1219 N2368
*1220 NOT1_664
*1221 BUFF1_565
*1222 N2803
*1223 NOT1_755
*1224 N3190
*1225 NOT1_891
*1226 N2621
*1227 N2624
*1228 NAND2_665
*1229 N3189
*1230 NOT1_890
*1231 N2613
*1232 NOT1_752
*1233 NAND2_659
*1234 N2992
*1235 NOT1_815
*1236 N3188
*1237 NOT1_889
*1238 N2793
*1239 N2796
*1240 NAND2_753
*1241 N3187
*1242 NOT1_888
*1243 N3177
*1244 NAND2_885
*1245 N3178
*1246 NAND2_886
*1247 N3175
*1248 NAND2_883
*1249 N3176
*1250 NAND2_884
*1251 N723
*1252 BUFF1_187
*1253 NOT1_69
*1254 N3061
*1255 NOT1_852
*1256 N719
*1257 BUFF1_186
*1258 NOT1_68
*1259 N3050
*1260 NOT1_843
*1261 N715
*1262 BUFF1_185
*1263 NOT1_67
*1264 N3039
*1265 NOT1_836
*1266 N711
*1267 BUFF1_184
*1268 NOT1_66
*1269 N705
*1270 AND2_860
*1271 AND2_851
*1272 BUFF1_183
*1273 NOT1_65
*1274 N3030
*1275 NOT1_831
*1276 N687
*1277 AND2_859
*1278 AND2_850
*1279 BUFF1_182
*1280 NOT1_62
*1281 N3076
*1282 NAND2_865
*1283 N2375
*1284 N3004
*1285 BUFF1_819
*1286 N3001
*1287 BUFF1_818
*1288 N2998
*1289 BUFF1_817
*1290 N2995
*1291 BUFF1_816
*1292 N3048
*1293 NOR2_841
*1294 N3047
*1295 NOR2_840
*1296 N2882
*1297 NOT1_863
*1298 NAND2_780
*1299 N3075
*1300 NOT1_864
*1301 N2885
*1302 NAND2_781
*1303 N3074
*1304 N2874
*1305 NOT1_861
*1306 NAND2_776
*1307 N3073
*1308 NOT1_862
*1309 N2877
*1310 NAND2_777
*1311 N3072
*1312 N3071
*1313 N2766
*1314 BUFF1_735
*1315 N3070
*1316 N3069
*1317 AND2_858
*1318 N3068
*1319 AND2_857
*1320 N3067
*1321 AND2_856
*1322 N3066
*1323 AND2_855
*1324 N3060
*1325 N2761
*1326 BUFF1_734
*1327 N3059
*1328 N3058
*1329 AND2_849
*1330 N3057
*1331 AND2_848
*1332 N3056
*1333 AND2_847
*1334 N3055
*1335 AND2_846
*1336 N3009
*1337 AND2_822
*1338 N3008
*1339 AND2_821
*1340 N2985
*1341 AND2_812
*1342 N2984
*1343 AND2_811
*1344 N2931
*1345 NOT1_866
*1346 BUFF1_835
*1347 AND3_801
*1348 N2881
*1349 NAND2_779
*1350 N2963
*1351 NAND2_804
*1352 N2869
*1353 BUFF1_775
*1354 N683
*1355 BUFF1_179
*1356 NOT1_61
*1357 N679
*1358 BUFF1_178
*1359 NOT1_60
*1360 N675
*1361 BUFF1_177
*1362 NOT1_59
*1363 N2859
*1364 BUFF1_774
*1365 N671
*1366 BUFF1_176
*1367 NOT1_58
*1368 N667
*1369 BUFF1_175
*1370 NOT1_57
*1371 N663
*1372 BUFF1_174
*1373 NOT1_56
*1374 N2854
*1375 BUFF1_773
*1376 N2844
*1377 BUFF1_772
*1378 N2939
*1379 AND3_803
*1380 N2840
*1381 AND3_770
*1382 N2938
*1383 AND3_802
*1384 N2839
*1385 AND3_769
*1386 N659
*1387 BUFF1_173
*1388 NOT1_55
*1389 N2831
*1390 BUFF1_766
*1391 N655
*1392 BUFF1_172
*1393 NOT1_54
*1394 N578
*1395 BUFF1_171
*1396 NOT1_38
*1397 N2820
*1398 BUFF1_762
*1399 N574
*1400 BUFF1_170
*1401 NOT1_37
*1402 N2817
*1403 BUFF1_800
*1404 AND2_761
*1405 N2921
*1406 AND2_799
*1407 N2920
*1408 AND2_798
*1409 N2919
*1410 AND2_797
*1411 N2918
*1412 AND2_796
*1413 N2917
*1414 AND2_795
*1415 N2916
*1416 AND2_794
*1417 N2915
*1418 OR2_793
*1419 N1070
*1420 BUFF1_120
*1421 N2914
*1422 OR2_792
*1423 N2806
*1424 NAND2_756
*1425 N2800
*1426 NAND2_754
*1427 N2901
*1428 AND2_791
*1429 N2900
*1430 AND2_790
*1431 N2899
*1432 OR2_789
*1433 N1037
*1434 BUFF1_111
*1435 N2898
*1436 OR2_788
*1437 N2897
*1438 AND2_787
*1439 N2896
*1440 AND2_786
*1441 N2895
*1442 AND2_785
*1443 N2894
*1444 AND2_784
*1445 N2469
*1446 NOT1_717
*1447 NOT1_615
*1448 N2880
*1449 NOT1_778
*1450 N2417
*1451 NOT1_702
*1452 NAND2_593
*1453 N2684
*1454 NOT1_703
*1455 N2838
*1456 NOT1_768
*1457 N2681
*1458 N2421
*1459 NAND2_594
*1460 N2837
*1461 NOT1_767
*1462 N2829
*1463 AND2_764
*1464 N2830
*1465 AND2_765
*1466 N1302
*1467 OR2_192
*1468 N2636
*1469 AND2_674
*1470 N2738
*1471 BUFF1_726
*1472 N2635
*1473 AND2_673
*1474 N2634
*1475 AND2_672
*1476 N2633
*1477 AND2_671
*1478 N2812
*1479 AND2_760
*1480 N2811
*1481 AND2_759
*1482 N2810
*1483 AND2_758
*1484 N2632
*1485 AND2_670
*1486 N2809
*1487 AND2_757
*1488 N2631
*1489 AND2_669
*1490 N2792
*1491 AND2_751
*1492 N2791
*1493 AND2_750
*1494 N2790
*1495 AND2_749
*1496 N2612
*1497 AND2_658
*1498 N2789
*1499 AND2_748
*1500 N2611
*1501 AND2_657
*1502 N2610
*1503 AND2_656
*1504 N2729
*1505 BUFF1_725
*1506 N2609
*1507 AND2_655
*1508 N2608
*1509 AND2_654
*1510 N2607
*1511 AND2_653
*1512 N2783
*1513 NAND2_783
*1514 OR2_746
*1515 N2784
*1516 OR2_747
*1517 N2781
*1518 NAND2_744
*1519 N2782
*1520 NAND2_745
*1521 N2775
*1522 NAND2_740
*1523 N2776
*1524 NAND2_741
*1525 N2777
*1526 NAND2_742
*1527 N2778
*1528 NAND2_743
*1529 N2703
*1530 NAND2_716
*1531 N2706
*1532 N2771
*1533 NAND2_736
*1534 N2772
*1535 NAND2_737
*1536 N2773
*1537 NAND2_738
*1538 N2774
*1539 NAND2_739
*1540 N2659
*1541 BUFF1_683
*1542 N2603
*1543 BUFF1_652
*1544 N2760
*1545 NAND2_733
*1546 N2694
*1547 NAND2_707
*1548 N2690
*1549 BUFF1_705
*1550 N2687
*1551 BUFF1_704
*1552 N2750
*1553 AND2_731
*1554 N2751
*1555 AND5_732
*1556 N2748
*1557 AND5_729
*1558 N2749
*1559 AND5_730
*1560 N2747
*1561 NAND2_728
*1562 N2664
*1563 NAND2_685
*1564 N2743
*1565 NOT1_727
*1566 N1875
*1567 NOT1_474
*1568 BUFF1_433
*1569 BUFF1_385
*1570 N2646
*1571 NOT1_679
*1572 N1870
*1573 NOT1_473
*1574 BUFF1_432
*1575 BUFF1_384
*1576 N1863
*1577 NOT1_472
*1578 BUFF1_431
*1579 BUFF1_383
*1580 N1856
*1581 NOT1_493
*1582 BUFF1_430
*1583 BUFF1_382
*1584 N2726
*1585 NAND2_724
*1586 N2629
*1587 NAND2_667
*1588 N2619
*1589 NAND2_662
*1590 N2720
*1591 NAND2_723
*1592 N2719
*1593 NAND2_722
*1594 N2618
*1595 NAND2_661
*1596 N2638
*1597 NOT1_675
*1598 N2710
*1599 AND2_721
*1600 N2531
*1601 NOT1_631
*1602 N2709
*1603 AND2_720
*1604 N2534
*1605 NOT1_632
*1606 N2487
*1607 NOT1_718
*1608 NAND2_621
*1609 N2708
*1610 NOT1_719
*1611 N2490
*1612 NAND2_622
*1613 N2707
*1614 N2463
*1615 NOT1_714
*1616 BUFF1_613
*1617 N2702
*1618 NOT1_715
*1619 N2466
*1620 BUFF1_614
*1621 N2701
*1622 N2457
*1623 NOT1_712
*1624 BUFF1_611
*1625 N2700
*1626 NOT1_713
*1627 N2460
*1628 BUFF1_612
*1629 N2699
*1630 N2446
*1631 NOT1_710
*1632 BUFF1_606
*1633 N2698
*1634 NOT1_711
*1635 N2449
*1636 BUFF1_607
*1637 N2697
*1638 N2440
*1639 NOT1_708
*1640 BUFF1_604
*1641 N2696
*1642 NOT1_709
*1643 N2443
*1644 BUFF1_605
*1645 N2695
*1646 N2540
*1647 BUFF1_634
*1648 N1588
*1649 NOT1_356
*1650 NAND2_321
*1651 N2693
*1652 NOT1_706
*1653 extra2
*1654 AND5_732_A
*1655 N2680
*1656 NOT1_701
*1657 N2676
*1658 NOT1_697
*1659 N2677
*1660 NOT1_698
*1661 N2678
*1662 NOT1_699
*1663 N2679
*1664 NOT1_700
*1665 N2034
*1666 OR2_441
*1667 N2675
*1668 NOT1_696
*1669 extra1
*1670 AND5_730_A
*1671 N2674
*1672 NOT1_695
*1673 N2670
*1674 NOT1_691
*1675 N2671
*1676 NOT1_692
*1677 N2672
*1678 NOT1_693
*1679 N2673
*1680 NOT1_694
*1681 extra0
*1682 AND5_729_A
*1683 N2669
*1684 NOT1_690
*1685 N2665
*1686 NOT1_686
*1687 N2666
*1688 NOT1_687
*1689 N2667
*1690 NOT1_688
*1691 N2668
*1692 NOT1_689
*1693 N2049
*1694 NOT1_515
*1695 NAND2_447
*1696 N2663
*1697 NOT1_684
*1698 N2652
*1699 NAND2_680
*1700 N2537
*1701 BUFF1_633
*1702 N2207
*1703 NOT1_568
*1704 N2628
*1705 NOT1_666
*1706 N2194
*1707 NOT1_564
*1708 N2620
*1709 NOT1_663
*1710 N2191
*1711 NOT1_563
*1712 N2617
*1713 NOT1_660
*1714 N2291
*1715 OR2_510
*1716 N2294
*1717 OR2_511
*1718 N2579
*1719 NAND2_651
*1720 N2453
*1721 NAND2_609
*1722 N2493
*1723 NAND2_623
*1724 N1807
*1725 N2425
*1726 NAND2_595
*1727 N2563
*1728 NAND2_645
*1729 N2564
*1730 NAND2_646
*1731 N2565
*1732 NAND2_647
*1733 N2566
*1734 NAND2_648
*1735 N2567
*1736 NAND2_649
*1737 N2568
*1738 NAND2_650
*1739 N2544
*1740 NAND2_635
*1741 N2545
*1742 NAND2_636
*1743 N2546
*1744 NAND2_637
*1745 N2547
*1746 NAND2_638
*1747 N2548
*1748 NAND2_639
*1749 N2549
*1750 NAND2_640
*1751 N2550
*1752 NAND2_641
*1753 N2551
*1754 NAND2_642
*1755 N2552
*1756 NAND2_643
*1757 N2553
*1758 NAND2_644
*1759 N2484
*1760 NAND2_620
*1761 N2301
*1762 N2359
*1763 NOT1_560
*1764 N2528
*1765 NAND2_630
*1766 N2400
*1767 NAND2_580
*1768 N2391
*1769 BUFF1_578
*1770 N2521
*1771 BUFF1_677
*1772 BUFF1_676
*1773 OR2_629
*1774 N2382
*1775 BUFF1_572
*1776 N1891
*1777 BUFF1_389
*1778 N2395
*1779 NOT1_579
*1780 N1681
*1781 BUFF1_418
*1782 AND2_405
*1783 OR4_339
*1784 N1676
*1785 BUFF1_416
*1786 AND2_404
*1787 OR4_338
*1788 N1880
*1789 NOT1_475
*1790 BUFF1_434
*1791 BUFF1_386
*1792 N2454
*1793 N2374
*1794 N2510
*1795 NAND2_627
*1796 N2511
*1797 NAND2_628
*1798 N2437
*1799 N2367
*1800 N2434
*1801 N2366
*1802 N2503
*1803 NAND2_625
*1804 N2504
*1805 NAND2_626
*1806 N2377
*1807 NOT1_571
*1808 N1936
*1809 NOT1_495
*1810 BUFF1_412
*1811 N2452
*1812 NOT1_608
*1813 N2339
*1814 NAND2_553
*1815 N2433
*1816 NAND2_601
*1817 N2337
*1818 NAND2_551
*1819 N2432
*1820 NAND2_600
*1821 N2335
*1822 NAND2_549
*1823 N2431
*1824 NAND2_599
*1825 N2333
*1826 NAND2_547
*1827 N2430
*1828 NAND2_598
*1829 N2331
*1830 NAND2_545
*1831 N2429
*1832 NAND2_597
*1833 N2329
*1834 NAND2_543
*1835 N2428
*1836 NAND2_596
*1837 N2320
*1838 NAND2_534
*1839 N2416
*1840 NAND2_592
*1841 N2318
*1842 NAND2_532
*1843 N2415
*1844 NAND2_591
*1845 N2316
*1846 NAND2_530
*1847 N2414
*1848 NAND2_590
*1849 N2314
*1850 NAND2_528
*1851 N2413
*1852 NAND2_589
*1853 N2312
*1854 NAND2_526
*1855 N2412
*1856 NAND2_588
*1857 N2310
*1858 NAND2_524
*1859 N2411
*1860 NAND2_587
*1861 N2308
*1862 NAND2_522
*1863 N2410
*1864 NAND2_586
*1865 N2306
*1866 NAND2_520
*1867 N2409
*1868 NAND2_585
*1869 N2304
*1870 NAND2_518
*1871 N2408
*1872 NAND2_584
*1873 N2302
*1874 NAND2_516
*1875 N2407
*1876 NAND2_583
*1877 N2250
*1878 AND3_507
*1879 N2046
*1880 NOT1_514
*1881 NAND2_446
*1882 N2406
*1883 NOT1_582
*1884 N1830
*1885 AND2_374
*1886 N2386
*1887 N2201
*1888 NOT1_566
*1889 N2373
*1890 NOT1_567
*1891 N2204
*1892 BUFF1_497
*1893 N2372
*1894 N2185
*1895 NOT1_561
*1896 N2365
*1897 NOT1_562
*1898 N2188
*1899 BUFF1_491
*1900 N2364
*1901 N2358
*1902 OR2_624
*1903 N1814
*1904 AND2_362
*1905 N2328
*1906 NOR2_542
*1907 N2327
*1908 NOR2_541
*1909 N2354
*1910 NAND2_555
*1911 N2355
*1912 NAND2_556
*1913 N2356
*1914 NAND2_557
*1915 N2357
*1916 NAND2_558
*1917 N2298
*1918 NOR2_513
*1919 N2297
*1920 NOR2_512
*1921 N2120
*1922 NAND2_466
*1923 N2147
*1924 N2150
*1925 N2141
*1926 N2144
*1927 N2197
*1928 NOT1_494
*1929 N2200
*1930 N1266
*1931 NOT1_316
*1932 N2340
*1933 NOT1_554
*1934 N1263
*1935 NOT1_315
*1936 N2338
*1937 NOT1_552
*1938 N1260
*1939 NOT1_314
*1940 N2336
*1941 NOT1_550
*1942 N1257
*1943 NOT1_313
*1944 N2334
*1945 NOT1_548
*1946 N1254
*1947 NOT1_312
*1948 N2332
*1949 NOT1_546
*1950 N1251
*1951 NOT1_311
*1952 N2330
*1953 NOT1_544
*1954 N2325
*1955 NAND2_539
*1956 N2326
*1957 NAND2_540
*1958 N2323
*1959 NAND2_537
*1960 N2324
*1961 NAND2_538
*1962 N2322
*1963 NAND2_536
*1964 N2172
*1965 NAND2_483
*1966 N1246
*1967 NOT1_275
*1968 N2321
*1969 NOT1_535
*1970 N1243
*1971 NOT1_274
*1972 N2319
*1973 NOT1_533
*1974 N1240
*1975 NOT1_273
*1976 N2317
*1977 NOT1_531
*1978 N1237
*1979 NOT1_272
*1980 N2315
*1981 NOT1_529
*1982 N1234
*1983 NOT1_271
*1984 N2313
*1985 NOT1_527
*1986 N1231
*1987 NOT1_270
*1988 N2311
*1989 NOT1_525
*1990 N1228
*1991 NOT1_269
*1992 N2309
*1993 NOT1_523
*1994 N1225
*1995 NOT1_268
*1996 N2307
*1997 NOT1_521
*1998 N1222
*1999 NOT1_267
*2000 N2305
*2001 NOT1_519
*2002 N1219
*2003 NOT1_266
*2004 N2303
*2005 NOT1_517
*2006 N2219
*2007 NAND2_502
*2008 N2300
*2009 N2113
*2010 AND3_464
*2011 N2269
*2012 BUFF1_577
*2013 BUFF1_576
*2014 OR2_509
*2015 N2266
*2016 BUFF1_575
*2017 BUFF1_574
*2018 OR2_508
*2019 N1963
*2020 NOT1_505
*2021 BUFF1_423
*2022 N2237
*2023 NOT1_506
*2024 N1966
*2025 BUFF1_424
*2026 N2236
*2027 N1957
*2028 NOT1_503
*2029 BUFF1_421
*2030 N2235
*2031 NOT1_504
*2032 N1960
*2033 BUFF1_422
*2034 N2234
*2035 N2110
*2036 OR2_463
*2037 N1577
*2038 N2107
*2039 OR2_462
*2040 N1576
*2041 N2104
*2042 OR2_461
*2043 N1575
*2044 N2101
*2045 OR2_460
*2046 N1574
*2047 N2098
*2048 OR2_459
*2049 N1573
*2050 N2095
*2051 OR2_458
*2052 N1572
*2053 N2178
*2054 AND3_489
*2055 N2043
*2056 AND3_445
*2057 N2177
*2058 AND3_488
*2059 N2042
*2060 AND3_444
*2061 N1951
*2062 NOT1_486
*2063 BUFF1_419
*2064 N2176
*2065 NOT1_487
*2066 N1954
*2067 BUFF1_420
*2068 N2175
*2069 N1945
*2070 NOT1_484
*2071 BUFF1_417
*2072 N2174
*2073 NOT1_485
*2074 N1948
*2075 N2173
*2076 N1708
*2077 NOT1_403
*2078 OR4_342
*2079 N2171
*2080 NOT1_482
*2081 N2079
*2082 OR2_457
*2083 N1528
*2084 N2076
*2085 OR2_456
*2086 N1527
*2087 N2073
*2088 OR2_455
*2089 N1526
*2090 N2070
*2091 OR2_454
*2092 N1525
*2093 N2067
*2094 OR2_453
*2095 N1524
*2096 N2064
*2097 OR2_452
*2098 N1523
*2099 N2061
*2100 OR2_451
*2101 N1522
*2102 N2058
*2103 OR2_450
*2104 N1521
*2105 N2055
*2106 OR2_449
*2107 N1520
*2108 N2052
*2109 OR2_448
*2110 N1519
*2111 N2158
*2112 AND3_481
*2113 N2033
*2114 AND3_440
*2115 N2157
*2116 AND3_480
*2117 N2032
*2118 AND3_439
*2119 N2155
*2120 AND2_478
*2121 N2156
*2122 AND2_479
*2123 N2153
*2124 AND2_476
*2125 N2154
*2126 AND2_477
*2127 N2127
*2128 AND2_469
*2129 N1832
*2130 N1831
*2131 AND2_375
*2132 N2126
*2133 N1897
*2134 NOT1_391
*2135 N2119
*2136 NOT1_465
*2137 N2031
*2138 NOR2_438
*2139 N2030
*2140 NOR2_437
*2141 N1824
*2142 BUFF1_372
*2143 N1833
*2144 NOT1_377
*2145 N1827
*2146 NOT1_373
*2147 N1553
*2148 NOT1_352
*2149 NAND2_300
*2150 N1798
*2151 NOT1_353
*2152 N2041
*2153 NOT1_443
*2154 N1795
*2155 N1557
*2156 NAND2_301
*2157 N2040
*2158 NOT1_442
*2159 N1942
*2160 N1919
*2161 N1502
*2162 NOT1_344
*2163 NAND2_261
*2164 N1773
*2165 NOT1_345
*2166 N2029
*2167 NOT1_436
*2168 N1770
*2169 N1506
*2170 NAND2_262
*2171 N2028
*2172 NOT1_435
*2173 N1888
*2174 NAND2_388
*2175 N1656
*2176 OR4_337
*2177 N730
*2178 NOT1_71
*2179 N1885
*2180 NAND2_387
*2181 N1651
*2182 AND2_411
*2183 OR4_336
*2184 N727
*2185 NOT1_70
*2186 N1852
*2187 BUFF1_429
*2188 BUFF1_381
*2189 N1848
*2190 BUFF1_428
*2191 BUFF1_380
*2192 N537
*2193 AND2_119
*2194 N408
*2195 NOT1_5
*2196 N1894
*2197 AND2_390
*2198 N1570
*2199 AND2_309
*2200 N1934
*2201 AND2_410
*2202 N1569
*2203 AND2_308
*2204 N1933
*2205 AND2_409
*2206 N1568
*2207 AND2_307
*2208 N1932
*2209 AND2_408
*2210 N1567
*2211 AND2_306
*2212 N1931
*2213 AND2_407
*2214 N1566
*2215 AND2_305
*2216 N1930
*2217 AND2_406
*2218 N1565
*2219 AND2_304
*2220 N1929
*2221 N1564
*2222 AND2_303
*2223 N1928
*2224 N1552
*2225 AND2_299
*2226 N1918
*2227 AND2_402
*2228 N1551
*2229 AND2_298
*2230 N1917
*2231 AND2_401
*2232 N1550
*2233 AND2_297
*2234 N1916
*2235 AND2_400
*2236 N1549
*2237 AND2_296
*2238 N1915
*2239 AND2_399
*2240 N1548
*2241 AND2_295
*2242 N1914
*2243 AND2_398
*2244 N1547
*2245 AND2_294
*2246 N1913
*2247 AND2_397
*2248 N1546
*2249 AND2_293
*2250 N1912
*2251 AND2_396
*2252 N1545
*2253 AND2_292
*2254 N1911
*2255 AND2_395
*2256 N1544
*2257 AND2_291
*2258 N1910
*2259 AND2_394
*2260 N1940
*2261 NAND2_414
*2262 N1941
*2263 NAND2_415
*2264 N1939
*2265 NAND2_413
*2266 N1809
*2267 NAND2_358
*2268 N1804
*2269 BUFF1_355
*2270 N1801
*2271 BUFF1_354
*2272 N1571
*2273 AND2_310
*2274 N1935