*SPEF "1481-1998"
*DESIGN "c3540"
*DATE "Wed Jul  2 15:16:05 2014"
*VENDOR "Synopsys, Inc."
*PROGRAM "icc_shell"
*VERSION "G-2012.06-ICC-SP5"
*DESIGN_FLOW "PIN_CAP NONE"
*DIVIDER /
*DELIMITER :
*BUS_DELIMITER [ ]
*T_UNIT 1 NS
*C_UNIT 1 FF
*R_UNIT 1 OHM
*L_UNIT 1 HENRY

*NAME_MAP
*1 N58
*2 N50
*3 N45
*4 N41
*5 N33
*6 N20
*7 N13
*8 N1
*9 N125
*10 N124
*11 N116
*12 N107
*13 N97
*14 N87
*15 N77
*16 N68
*17 N179
*18 N169
*19 N159
*20 N150
*21 N143
*22 N137
*23 N132
*24 N128
*25 N238
*26 N232
*27 N226
*28 N223
*29 N222
*30 N213
*31 N200
*32 N190
*33 N294
*34 N283
*35 N274
*36 N270
*37 N264
*38 N257
*39 N250
*40 N244
*41 N343
*42 N330
*43 N329
*44 N326
*45 N322
*46 N317
*47 N311
*48 N303
*49 N4028
*50 N3987
*51 N3833
*52 N3195
*53 N1947
*54 N1713
*55 N350
*56 N349
*57 N5047
*58 N5045
*59 N5002
*60 N4944
*61 N4815
*62 N4667
*63 N4589
*64 N4145
*65 N5361
*66 N5360
*67 N5231
*68 N5192
*69 N5121
*70 N5120
*71 N5102
*72 N5078
*73 VDD
*74 VSS
*75 N5358
*76 NAND2_1669
*77 NAND2_1666
*78 N5359
*79 NAND2_1667
*80 N5356
*81 AND2_1668
*82 NAND2_1664
*83 N5357
*84 NAND2_1665
*85 N5349
*86 NAND2_1657
*87 N5355
*88 NAND2_1663
*89 N5348
*90 NAND2_1656
*91 N5354
*92 NAND2_1662
*93 N5351
*94 NAND2_1659
*95 N5341
*96 NAND2_1653
*97 N5350
*98 NAND2_1658
*99 N5340
*100 NAND2_1652
*101 N5292
*102 NOT1_1644
*103 BUFF1_1638
*104 N5352
*105 NOT1_1660
*106 N5289
*107 NOT1_1645
*108 BUFF1_1637
*109 N5353
*110 NOT1_1661
*111 N5332
*112 BUFF1_1650
*113 N5335
*114 BUFF1_1651
*115 N5306
*116 NOT1_1646
*117 BUFF1_1642
*118 N5344
*119 NOT1_1654
*120 N5303
*121 NOT1_1647
*122 BUFF1_1641
*123 N5345
*124 NOT1_1655
*125 N5312
*126 N5313
*127 N5324
*128 BUFF1_1648
*129 N5327
*130 BUFF1_1649
*131 N5322
*132 N5323
*133 N5309
*134 NAND2_1643
*135 N5298
*136 OR4_1640
*137 N5295
*138 NAND2_1639
*139 N5284
*140 NAND2_1634
*141 N5279
*142 NOT1_1632
*143 N5277
*144 AND3_1630
*145 N5285
*146 AND3_1635
*147 N5278
*148 AND3_1631
*149 N5286
*150 AND3_1636
*151 N5228
*152 NOT1_1623
*153 NAND2_1610
*154 N5283
*155 NOT1_1633
*156 N5258
*157 NAND2_1626
*158 N5250
*159 NOT1_1622
*160 N5266
*161 NOT1_1628
*162 N2307
*163 AND2_455
*164 N5236
*165 BUFF1_1629
*166 NAND2_1616
*167 N2310
*168 NAND2_456
*169 N5269
*170 N5253
*171 N5261
*172 NAND2_1627
*173 N5254
*174 NAND2_1624
*175 N5257
*176 NAND2_1625
*177 N5234
*178 NAND2_1614
*179 N5246
*180 NAND2_1621
*181 N5232
*182 NAND2_1612
*183 N5245
*184 NAND2_1620
*185 N5243
*186 NAND2_1619
*187 N5224
*188 NAND2_1608
*189 N5242
*190 NAND2_1618
*191 N5223
*192 NAND2_1607
*193 N5240
*194 NAND2_1617
*195 N5177
*196 NOT1_1603
*197 BUFF1_1585
*198 N5235
*199 NOT1_1615
*200 N5174
*201 NOT1_1602
*202 BUFF1_1584
*203 N5233
*204 NOT1_1613
*205 N5163
*206 NOT1_1597
*207 BUFF1_1581
*208 N5225
*209 NOT1_1609
*210 N5160
*211 NOT1_1596
*212 BUFF1_1580
*213 N5222
*214 NOT1_1606
*215 N5198
*216 NAND2_1594
*217 N5221
*218 NAND2_1605
*219 N5196
*220 NAND2_1592
*221 N5220
*222 NAND2_1604
*223 N5209
*224 BUFF1_1599
*225 N5219
*226 N5205
*227 BUFF1_1598
*228 N5217
*229 N5215
*230 NOT1_1611
*231 AND2_1601
*232 N5183
*233 NAND2_1587
*234 N5212
*235 NAND2_1600
*236 N5188
*237 BUFF1_1589
*238 N5203
*239 N5184
*240 BUFF1_1588
*241 N5201
*242 N4940
*243 NOT1_1523
*244 BUFF1_1506
*245 N5199
*246 NOT1_1595
*247 N4937
*248 NOT1_1522
*249 BUFF1_1505
*250 N5197
*251 NOT1_1593
*252 NAND3_326
*253 AND3_325
*254 NAND3_324
*255 AND3_323
*256 NAND2_322
*257 AND2_321
*258 NOT1_63
*259 N5193
*260 NOR2_1591
*261 N5117
*262 NOT1_1579
*263 BUFF1_1567
*264 N5182
*265 NOT1_1586
*266 N5145
*267 NAND2_1576
*268 N5154
*269 BUFF1_1578
*270 N4979
*271 N5151
*272 BUFF1_1577
*273 N4978
*274 N5136
*275 AND3_1574
*276 N5173
*277 AND2_1583
*278 N5166
*279 NOT1_1590
*280 AND2_1582
*281 N5128
*282 AND2_1572
*283 N5139
*284 BUFF1_1575
*285 N5159
*286 N5122
*287 NAND2_1570
*288 N5066
*289 AND4_1552
*290 N5133
*291 AND4_1573
*292 N5114
*293 AND2_1566
*294 N5111
*295 BUFF1_1565
*296 N5125
*297 NAND2_1571
*298 N5110
*299 NAND2_1564
*300 N5080
*301 AND2_1568
*302 OR3_1555
*303 N5055
*304 NOR3_1549
*305 N5085
*306 NOR3_1556
*307 N1464
*308 BUFF1_327
*309 NOR2_152
*310 N4880
*311 NOT1_1496
*312 NOR3_1479
*313 N5061
*314 NOT1_1561
*315 NOR3_1551
*316 N1461
*317 OR2_151
*318 N5042
*319 NOT1_1559
*320 BUFF1_1544
*321 N5109
*322 NOT1_1563
*323 N5094
*324 NAND2_1557
*325 N5108
*326 NAND2_1562
*327 N5058
*328 AND2_1569
*329 OR3_1550
*330 N5103
*331 N5050
*332 AND2_1560
*333 OR3_1548
*334 N5070
*335 BUFF1_1553
*336 N5097
*337 N4812
*338 NOT1_1480
*339 BUFF1_1456
*340 N5095
*341 NOT1_1558
*342 N5039
*343 BUFF1_1543
*344 N4885
*345 N4985
*346 AND2_1529
*347 N5030
*348 AND2_1542
*349 N4335
*350 AND2_1290
*351 N5018
*352 AND2_1554
*353 OR3_1538
*354 N5046
*355 NOT1_1546
*356 N4730
*357 NOT1_1446
*358 NOR3_1430
*359 N4999
*360 NOT1_1541
*361 NOR3_1533
*362 N5021
*363 NOR3_1539
*364 N4991
*365 NOT1_1540
*366 NOR3_1531
*367 N4907
*368 AND2_1493
*369 N5013
*370 AND2_1537
*371 N4338
*372 AND2_1291
*373 N4831
*374 AND2_1466
*375 N5010
*376 AND2_1536
*377 N4472
*378 AND2_1328
*379 N4996
*380 AND2_1547
*381 OR3_1532
*382 N5029
*383 N4988
*384 AND2_1545
*385 OR3_1530
*386 N5026
*387 N5007
*388 OR2_1535
*389 N2729
*390 NOT1_573
*391 N4838
*392 AND2_1467
*393 N4973
*394 AND2_1521
*395 N4475
*396 AND2_1329
*397 N4984
*398 NOT1_1528
*399 N2733
*400 NOT1_577
*401 N4983
*402 NAND2_1527
*403 N2731
*404 NOT1_575
*405 N4981
*406 NOR2_1525
*407 N4982
*408 AND4_1526
*409 N4964
*410 AND2_1534
*411 OR3_1516
*412 N4980
*413 NOT1_1524
*414 N4800
*415 AND2_1453
*416 N4957
*417 AND2_1515
*418 N4347
*419 AND2_1294
*420 N4913
*421 AND2_1494
*422 N4954
*423 AND2_1514
*424 N4344
*425 AND2_1293
*426 N4946
*427 NAND2_1508
*428 N2121
*429 NOT1_379
*430 N4970
*431 NAND2_1520
*432 N4950
*433 NAND2_1510
*434 N4969
*435 NAND2_1519
*436 N4818
*437 AND2_1495
*438 NAND2_1460
*439 N4743
*440 BUFF1_1470
*441 NAND2_1433
*442 N4722
*443 BUFF1_1454
*444 BUFF1_1427
*445 N4968
*446 NOT1_1518
*447 N4965
*448 NOR3_1517
*449 N4953
*450 NAND2_1513
*451 N2739
*452 NOT1_583
*453 N4952
*454 NAND2_1512
*455 N4928
*456 NAND2_1501
*457 N4850
*458 NOT1_1489
*459 N4951
*460 NOT1_1511
*461 N4949
*462 NAND2_1509
*463 N2764
*464 AND2_601
*465 N2483
*466 AND2_517
*467 N4921
*468 AND2_1497
*469 N4931
*470 NOT1_1504
*471 N2741
*472 NOT1_585
*473 N4926
*474 OR2_1500
*475 N2737
*476 NOT1_581
*477 N4930
*478 NAND2_1503
*479 N4905
*480 NAND2_1491
*481 N4805
*482 NOT1_1475
*483 N4929
*484 NOT1_1502
*485 N4916
*486 N4902
*487 N4925
*488 NAND2_1499
*489 N4899
*490 NAND2_1486
*491 N4924
*492 NAND2_1498
*493 N4897
*494 NAND2_1484
*495 N4876
*496 AND2_1507
*497 OR3_1478
*498 N4920
*499 N4906
*500 NAND2_1492
*501 N4808
*502 NOT1_1476
*503 AND2_1455
*504 N4904
*505 NOT1_1490
*506 N4889
*507 NOT1_1481
*508 N4870
*509 N4900
*510 NOR2_1487
*511 N4901
*512 AND4_1488
*513 N4659
*514 NOT1_1421
*515 BUFF1_1399
*516 N4898
*517 NOT1_1485
*518 N4656
*519 NOT1_1420
*520 BUFF1_1398
*521 N4896
*522 NOT1_1483
*523 N4895
*524 NAND2_1482
*525 N2184
*526 AND2_418
*527 N4644
*528 NOR2_1395
*529 N4823
*530 NAND2_1462
*531 N2125
*532 NOT1_383
*533 N2123
*534 NOT1_381
*535 N4873
*536 NAND2_1477
*537 N4829
*538 NAND2_1464
*539 N4854
*540 BUFF1_1471
*541 N4872
*542 N4717
*543 NAND2_1425
*544 N4757
*545 NAND2_1442
*546 N4564
*547 BUFF1_1400
*548 BUFF1_1364
*549 N4868
*550 NOT1_1474
*551 N4847
*552 BUFF1_1469
*553 N4707
*554 N4844
*555 BUFF1_1468
*556 N4706
*557 N4859
*558 NAND2_1472
*559 N4860
*560 NAND2_1473
*561 N4822
*562 NAND2_1461
*563 N4794
*564 AND2_1451
*565 N4797
*566 AND2_1452
*567 N4341
*568 AND2_1292
*569 N4664
*570 NOT1_1428
*571 N4830
*572 NOT1_1465
*573 N4826
*574 NAND2_1463
*575 N4769
*576 NOT1_1458
*577 NAND2_1443
*578 N4817
*579 NOT1_1459
*580 N4772
*581 AND2_1444
*582 N4816
*583 N4740
*584 NAND2_1432
*585 N2126
*586 NOT1_384
*587 N2122
*588 NOT1_380
*589 N4775
*590 NOT1_1445
*591 N4726
*592 N4789
*593 NAND2_1450
*594 N4756
*595 NAND2_1441
*596 N4788
*597 NAND2_1449
*598 N4754
*599 NAND2_1439
*600 N4787
*601 NAND2_1448
*602 N4750
*603 NAND2_1437
*604 N4786
*605 NAND2_1447
*606 N4748
*607 NAND2_1435
*608 N4727
*609 AND2_1457
*610 OR3_1429
*611 N4778
*612 N4468
*613 NOR2_1327
*614 N2127
*615 NOT1_385
*616 N4711
*617 NAND2_1423
*618 N2735
*619 NOT1_579
*620 N2124
*621 NOT1_382
*622 N4540
*623 NOT1_1380
*624 BUFF1_1355
*625 N4755
*626 NOT1_1440
*627 N4537
*628 NOT1_1379
*629 BUFF1_1354
*630 N4753
*631 NOT1_1438
*632 N4534
*633 NOT1_1377
*634 BUFF1_1353
*635 N4749
*636 NOT1_1436
*637 N4531
*638 NOT1_1376
*639 BUFF1_1352
*640 N4747
*641 NOT1_1434
*642 N4721
*643 NAND2_1426
*644 AND3_1289
*645 AND2_1257
*646 AND2_1238
*647 BUFF1_78
*648 AND3_1381
*649 AND2_1357
*650 AND3_1356
*651 AND2_1335
*652 AND2_1314
*653 AND2_1306
*654 AND2_1305
*655 N4704
*656 NAND2_1418
*657 N4733
*658 NAND2_1431
*659 N4688
*660 NAND2_1413
*661 N4716
*662 NAND2_1424
*663 N4677
*664 NAND2_1409
*665 N4700
*666 BUFF1_1417
*667 N4603
*668 N4697
*669 BUFF1_1416
*670 N4602
*671 N4694
*672 BUFF1_1415
*673 N4597
*674 N4691
*675 BUFF1_1414
*676 N4596
*677 N4708
*678 NAND2_1422
*679 N4674
*680 NAND2_1406
*681 N4705
*682 NAND2_1419
*683 N4670
*684 NAND2_1404
*685 N4479
*686 NOT1_1365
*687 BUFF1_1330
*688 N4687
*689 NOT1_1412
*690 N4647
*691 AND2_1396
*692 N4650
*693 AND2_1397
*694 N4350
*695 AND2_1295
*696 N4679
*697 NAND2_1411
*698 N4643
*699 NAND2_1394
*700 N4678
*701 NAND2_1410
*702 N4641
*703 NAND2_1392
*704 N4493
*705 NOT1_1360
*706 N4676
*707 NOT1_1408
*708 N4675
*709 NAND2_1407
*710 N4636
*711 NAND2_1390
*712 N4435
*713 NOT1_1341
*714 N4673
*715 NOT1_1405
*716 N4139
*717 NOT1_1255
*718 NAND2_1222
*719 N4669
*720 NOT1_1403
*721 N4629
*722 NAND2_1387
*723 N4668
*724 NAND2_1402
*725 N4599
*726 NAND2_1378
*727 N4593
*728 NAND2_1375
*729 N4613
*730 BUFF1_1382
*731 N4568
*732 N4368
*733 NOT1_1323
*734 BUFF1_1301
*735 N4642
*736 NOT1_1393
*737 N4365
*738 NOT1_1322
*739 BUFF1_1300
*740 N4640
*741 NOT1_1391
*742 N4623
*743 NAND2_1385
*744 N4558
*745 N4186
*746 NOT1_1270
*747 N4635
*748 NOT1_1389
*749 N4619
*750 NAND2_1384
*751 N4507
*752 N4616
*753 BUFF1_1383
*754 N4239
*755 N4413
*756 NOT1_1340
*757 BUFF1_1309
*758 N4630
*759 NOT1_1388
*760 N4587
*761 AND2_1401
*762 OR3_1372
*763 N4628
*764 NOT1_1386
*765 N4549
*766 N4559
*767 NAND2_1361
*768 N2743
*769 NOT1_587
*770 N2128
*771 NOT1_386
*772 N4608
*773 N4563
*774 AND2_1363
*775 N4584
*776 BUFF1_1371
*777 N4462
*778 N4581
*779 BUFF1_1370
*780 N4461
*781 N4576
*782 NAND2_1369
*783 N4291
*784 N4569
*785 BUFF1_1366
*786 N4506
*787 N4588
*788 NOR3_1373
*789 N4573
*790 NAND2_1368
*791 N4530
*792 NAND2_1351
*793 N4572
*794 NAND2_1367
*795 N4527
*796 NAND2_1348
*797 N4503
*798 NAND4_1339
*799 N4284
*800 AND2_1268
*801 N4562
*802 NOT1_1362
*803 N4555
*804 NAND2_1359
*805 N4511
*806 NAND2_1345
*807 N4552
*808 NAND2_1358
*809 N4509
*810 NAND2_1343
*811 N4545
*812 OR2_1374
*813 N4497
*814 AND2_1337
*815 N2758
*816 AND2_599
*817 N4498
*818 AND2_1338
*819 N2761
*820 AND2_600
*821 N4458
*822 NAND2_1321
*823 N4487
*824 NAND2_1333
*825 N4528
*826 NAND2_1349
*827 N4362
*828 NOT1_1334
*829 BUFF1_1299
*830 N4529
*831 NOT1_1350
*832 N4353
*833 NOT1_1331
*834 BUFF1_1296
*835 N4526
*836 NOT1_1347
*837 N4443
*838 AND4_1316
*839 N4310
*840 BUFF1_1326
*841 OR2_1277
*842 N4465
*843 N4463
*844 NAND2_1324
*845 N4515
*846 NAND2_1346
*847 N4142
*848 NOT1_1256
*849 NAND2_1223
*850 N4510
*851 NOT1_1344
*852 N4356
*853 NOT1_1320
*854 BUFF1_1297
*855 N4508
*856 NOT1_1342
*857 N4319
*858 AND2_1281
*859 N4496
*860 NOT1_1336
*861 N4390
*862 N4387
*863 N4430
*864 BUFF1_1313
*865 N4491
*866 N4182
*867 NOT1_1273
*868 BUFF1_1237
*869 N4486
*870 NOT1_1332
*871 N4416
*872 NAND3_1310
*873 N4484
*874 N965
*875 NOT1_150
*876 N4464
*877 NOT1_1325
*878 N4427
*879 NAND3_1312
*880 N4241
*881 N4421
*882 OR2_1311
*883 N4452
*884 N3947
*885 NOT1_1138
*886 N4446
*887 NAND2_1317
*888 N4447
*889 NAND3_1318
*890 N4448
*891 NAND4_1319
*892 N4442
*893 OR2_1315
*894 N1769
*895 NOT1_247
*896 N4287
*897 BUFF1_1308
*898 OR2_1269
*899 N4398
*900 N4359
*901 BUFF1_1298
*902 N4299
*903 N4377
*904 NOR3_1304
*905 N2740
*906 AND2_584
*907 N4376
*908 NOR3_1303
*909 N2732
*910 AND2_576
*911 N4331
*912 N4296
*913 BUFF1_1272
*914 N4371
*915 AND2_1302
*916 N1460
*917 N4329
*918 NAND2_1287
*919 N4393
*920 NAND2_1307
*921 N4305
*922 BUFF1_1276
*923 N4200
*924 BUFF1_1248
*925 N4213
*926 NAND3_1284
*927 AND3_1278
*928 BUFF1_1251
*929 N4167
*930 AND2_1282
*931 NOT1_1271
*932 AND2_1267
*933 BUFF1_1235
*934 N3913
*935 NAND2_1283
*936 BUFF1_1123
*937 N3809
*938 NOT1_1126
*939 AND2_1095
*940 N4174
*941 AND2_1279
*942 BUFF1_1236
*943 N4203
*944 BUFF1_1249
*945 N4316
*946 N3948
*947 NOT1_1139
*948 N4327
*949 NAND2_1285
*950 N4328
*951 NAND3_1286
*952 N3812
*953 AND2_1096
*954 N4322
*955 N3920
*956 N4325
*957 N4326
*958 N3921
*959 NOT1_1155
*960 BUFF1_1127
*961 N4330
*962 NOT1_1288
*963 N4318
*964 AND3_1280
*965 N4317
*966 N3718
*967 AND2_1070
*968 N4304
*969 AND2_1275
*970 N3642
*971 AND2_1020
*972 N3714
*973 AND2_1066
*974 N4303
*975 AND2_1274
*976 N2899
*977 AND2_605
*978 N4223
*979 BUFF1_1253
*980 N4242
*981 N4218
*982 NAND2_1252
*983 N4209
*984 BUFF1_1250
*985 N4197
*986 NAND2_1247
*987 N4258
*988 NOR3_1266
*989 N2744
*990 AND2_588
*991 N4257
*992 NOR3_1265
*993 N2742
*994 AND2_586
*995 N4255
*996 NOR3_1263
*997 N2738
*998 AND2_582
*999 N4254
*1000 NOR3_1262
*1001 N2736
*1002 AND2_580
*1003 N4253
*1004 NOR3_1261
*1005 N2734
*1006 AND2_578
*1007 N4251
*1008 NOR3_1259
*1009 N2730
*1010 AND2_574
*1011 N4094
*1012 OR2_1200
*1013 N4295
*1014 N4247
*1015 BUFF1_1258
*1016 N4013
*1017 N4128
*1018 AND2_1254
*1019 NAND2_1221
*1020 N3917
*1021 BUFF1_1125
*1022 N3815
*1023 AND2_1097
*1024 N3992
*1025 NOT1_1188
*1026 NAND4_1153
*1027 N4283
*1028 N4256
*1029 NOT1_1264
*1030 N2235
*1031 NOT1_437
*1032 N4252
*1033 NOT1_1260
*1034 N2231
*1035 NOT1_433
*1036 N4238
*1037 N4035
*1038 BUFF1_1163
*1039 N3720
*1040 AND2_1072
*1041 N4196
*1042 AND2_1246
*1043 N3780
*1044 AND2_1090
*1045 N3719
*1046 AND2_1071
*1047 N4195
*1048 AND2_1245
*1049 N3779
*1050 AND2_1089
*1051 N4194
*1052 NAND2_1244
*1053 N3717
*1054 AND2_1069
*1055 N4193
*1056 AND2_1243
*1057 N3406
*1058 AND2_930
*1059 N3716
*1060 AND2_1068
*1061 N4192
*1062 AND2_1242
*1063 N2901
*1064 AND2_607
*1065 N3715
*1066 AND2_1067
*1067 N4191
*1068 AND2_1241
*1069 N2900
*1070 AND2_606
*1071 N4190
*1072 NAND2_1240
*1073 N3713
*1074 AND2_1065
*1075 N4189
*1076 AND2_1239
*1077 N2898
*1078 AND2_604
*1079 N4123
*1080 NAND2_1218
*1081 N4161
*1082 NAND2_1234
*1083 N4127
*1084 NAND2_1220
*1085 N4119
*1086 NAND2_1216
*1087 N4116
*1088 NAND2_1215
*1089 N4154
*1090 NAND2_1233
*1091 N4114
*1092 NAND2_1213
*1093 N4153
*1094 NOT1_1232
*1095 N2237
*1096 NOT1_439
*1097 N4152
*1098 NOT1_1231
*1099 N2236
*1100 NOT1_438
*1101 N4151
*1102 NAND2_1230
*1103 N4110
*1104 NAND2_1209
*1105 N4150
*1106 NOT1_1229
*1107 N2234
*1108 NOT1_436
*1109 N4149
*1110 NOT1_1228
*1111 N2233
*1112 NOT1_435
*1113 N4148
*1114 NOT1_1227
*1115 N2232
*1116 NOT1_434
*1117 N4147
*1118 NAND2_1226
*1119 N4106
*1120 NAND2_1205
*1121 N4146
*1122 NOT1_1225
*1123 N2230
*1124 NOT1_432
*1125 N4091
*1126 AND2_1199
*1127 N3827
*1128 NOT1_1121
*1129 BUFF1_1101
*1130 N4126
*1131 NOT1_1219
*1132 N3821
*1133 NOT1_1118
*1134 BUFF1_1099
*1135 N4113
*1136 NOT1_1212
*1137 N4112
*1138 NAND2_1211
*1139 N4111
*1140 NAND2_1210
*1141 N3830
*1142 NOT1_1120
*1143 BUFF1_1102
*1144 N4122
*1145 NOT1_1217
*1146 N4109
*1147 NAND2_1208
*1148 N4108
*1149 NAND2_1207
*1150 N4107
*1151 NAND2_1206
*1152 N3824
*1153 NOT1_1119
*1154 BUFF1_1100
*1155 N4115
*1156 NOT1_1214
*1157 N4105
*1158 NAND2_1204
*1159 N4104
*1160 NOT1_1224
*1161 AND2_1203
*1162 N4101
*1163 NAND2_1202
*1164 N4066
*1165 NAND2_1184
*1166 N4098
*1167 NAND2_1201
*1168 N4058
*1169 NAND2_1180
*1170 N4090
*1171 NAND2_1198
*1172 N4055
*1173 NAND2_1177
*1174 N4067
*1175 BUFF1_1185
*1176 N3911
*1177 N4088
*1178 NAND2_1197
*1179 N4052
*1180 NAND2_1174
*1181 N4070
*1182 BUFF1_1186
*1183 N4086
*1184 NAND2_1196
*1185 N4047
*1186 NAND2_1169
*1187 N4085
*1188 NAND2_1195
*1189 N4044
*1190 NAND2_1166
*1191 N4062
*1192 BUFF1_1182
*1193 N4059
*1194 BUFF1_1181
*1195 N3898
*1196 N4080
*1197 NAND2_1194
*1198 N4034
*1199 NAND2_1162
*1200 N4079
*1201 NAND2_1193
*1202 N4033
*1203 NAND2_1161
*1204 N3906
*1205 N4078
*1206 NAND2_1192
*1207 N4032
*1208 NAND2_1160
*1209 N4077
*1210 NAND2_1191
*1211 N4031
*1212 NAND2_1159
*1213 N4076
*1214 NAND2_1190
*1215 N4030
*1216 NAND2_1158
*1217 N3899
*1218 N4075
*1219 NAND2_1189
*1220 N4029
*1221 NAND2_1157
*1222 N4073
*1223 NAND2_1187
*1224 N4074
*1225 N3508
*1226 NOT1_1058
*1227 BUFF1_972
*1228 N4065
*1229 NOT1_1183
*1230 N3490
*1231 NOT1_1057
*1232 BUFF1_966
*1233 N4057
*1234 NOT1_1179
*1235 N3605
*1236 AND2_1003
*1237 N4056
*1238 AND2_1178
*1239 N3996
*1240 NAND4_1154
*1241 N1926
*1242 AND2_1098
*1243 N3514
*1244 NOT1_1054
*1245 BUFF1_974
*1246 N4054
*1247 NOT1_1176
*1248 N3520
*1249 NOT1_1052
*1250 BUFF1_976
*1251 N4051
*1252 NOT1_1173
*1253 N3502
*1254 NOT1_1047
*1255 BUFF1_970
*1256 N4046
*1257 NOT1_1168
*1258 N3496
*1259 NOT1_1045
*1260 BUFF1_968
*1261 N4043
*1262 NOT1_1165
*1263 N3523
*1264 NOT1_1053
*1265 BUFF1_977
*1266 N4053
*1267 NOT1_1175
*1268 N3517
*1269 NOT1_1051
*1270 BUFF1_975
*1271 N4050
*1272 NOT1_1172
*1273 N3511
*1274 NOT1_1049
*1275 BUFF1_973
*1276 N4049
*1277 NOT1_1171
*1278 N3505
*1279 NOT1_1048
*1280 BUFF1_971
*1281 N4048
*1282 NOT1_1170
*1283 N3499
*1284 NOT1_1046
*1285 BUFF1_969
*1286 N4045
*1287 NOT1_1167
*1288 N3493
*1289 NOT1_1043
*1290 BUFF1_967
*1291 N4042
*1292 NOT1_1164
*1293 N3926
*1294 AND2_1156
*1295 AND4_1130
*1296 N3940
*1297 BUFF1_1137
*1298 N3968
*1299 BUFF1_1146
*1300 N3704
*1301 N3937
*1302 BUFF1_1136
*1303 N3950
*1304 BUFF1_1140
*1305 N3703
*1306 N3932
*1307 AND4_1133
*1308 N2304
*1309 NOT1_572
*1310 BUFF1_454
*1311 N3974
*1312 BUFF1_1148
*1313 N3696
*1314 N3983
*1315 BUFF1_1151
*1316 N3980
*1317 BUFF1_1150
*1318 N3694
*1319 N3977
*1320 BUFF1_1149
*1321 N3971
*1322 BUFF1_1147
*1323 N3965
*1324 BUFF1_1145
*1325 N3962
*1326 BUFF1_1144
*1327 N3687
*1328 N3959
*1329 BUFF1_1143
*1330 N3956
*1331 BUFF1_1142
*1332 N3685
*1333 N3953
*1334 BUFF1_1141
*1335 N3695
*1336 N3693
*1337 N3689
*1338 N3688
*1339 N3686
*1340 N3681
*1341 N3766
*1342 NOT1_1082
*1343 N3895
*1344 NAND2_1117
*1345 N3935
*1346 NAND3_1134
*1347 N3936
*1348 NAND4_1135
*1349 N3765
*1350 NOT1_1081
*1351 N3894
*1352 NAND2_1116
*1353 N3930
*1354 NAND3_1131
*1355 N3931
*1356 NAND4_1132
*1357 N3924
*1358 NAND2_1152
*1359 NOT1_1128
*1360 N3925
*1361 NOT1_1129
*1362 N3868
*1363 BUFF1_1113
*1364 N3865
*1365 BUFF1_1112
*1366 N3861
*1367 BUFF1_1111
*1368 N3858
*1369 BUFF1_1110
*1370 N3855
*1371 BUFF1_1109
*1372 N3850
*1373 BUFF1_1108
*1374 N3916
*1375 AND2_1124
*1376 N3912
*1377 AND2_1122
*1378 N3845
*1379 AND2_1107
*1380 N3838
*1381 AND2_1106
*1382 N3677
*1383 OR2_1041
*1384 N3756
*1385 AND2_1079
*1386 N3743
*1387 AND2_1077
*1388 N3673
*1389 OR2_1039
*1390 N3762
*1391 AND2_1080
*1392 N3658
*1393 OR2_1030
*1394 N3734
*1395 AND2_1075
*1396 N3721
*1397 AND2_1073
*1398 N3654
*1399 OR2_1028
*1400 N3740
*1401 AND2_1076
*1402 N3885
*1403 NAND2_1115
*1404 N3884
*1405 NAND2_1114
*1406 N3818
*1407 N3800
*1408 OR2_1093
*1409 N1917
*1410 N3786
*1411 OR2_1091
*1412 N1912
*1413 N3777
*1414 NAND2_1087
*1415 N3835
*1416 NAND2_1105
*1417 N3775
*1418 NAND2_1085
*1419 N3834
*1420 NAND2_1104
*1421 N3803
*1422 NOR2_1094
*1423 N3753
*1424 OR3_1078
*1425 N3789
*1426 NOR2_1092
*1427 N3731
*1428 OR3_1074
*1429 N3484
*1430 NOT1_1007
*1431 BUFF1_964
*1432 N3778
*1433 NOT1_1088
*1434 N3487
*1435 NOT1_1006
*1436 BUFF1_965
*1437 N3776
*1438 NOT1_1086
*1439 N3773
*1440 NAND2_1103
*1441 NAND2_1083
*1442 N3774
*1443 NAND2_1084
*1444 N3690
*1445 AND2_1050
*1446 N3682
*1447 AND2_1044
*1448 N3664
*1449 AND3_1034
*1450 N3667
*1451 AND3_1035
*1452 N3645
*1453 AND3_1023
*1454 N3648
*1455 AND3_1024
*1456 N3711
*1457 OR3_1063
*1458 N2647
*1459 AND2_551
*1460 N3712
*1461 OR3_1064
*1462 N2645
*1463 AND2_549
*1464 N3697
*1465 BUFF1_1055
*1466 N3629
*1467 N3700
*1468 BUFF1_1056
*1469 N3628
*1470 N3707
*1471 NAND2_1061
*1472 N3708
*1473 NAND2_1062
*1474 N3705
*1475 NAND2_1059
*1476 N3706
*1477 NAND2_1060
*1478 N3662
*1479 OR2_1032
*1480 N3643
*1481 OR2_1021
*1482 N3680
*1483 NOR2_1042
*1484 N3594
*1485 OR3_1002
*1486 N3676
*1487 NOR2_1040
*1488 N3589
*1489 OR3_1001
*1490 N3670
*1491 AND3_1036
*1492 N3671
*1493 AND3_1037
*1494 N3672
*1495 NOT1_1038
*1496 N3663
*1497 NOR2_1033
*1498 N3578
*1499 OR3_1000
*1500 N3661
*1501 NOR2_1031
*1502 N3573
*1503 OR3_999
*1504 N3657
*1505 NOR2_1029
*1506 N3568
*1507 OR3_998
*1508 N3651
*1509 AND3_1025
*1510 N3652
*1511 AND3_1026
*1512 N3653
*1513 NOT1_1027
*1514 N3644
*1515 NOR2_1022
*1516 N3557
*1517 OR3_997
*1518 N3641
*1519 OR2_1019
*1520 N2646
*1521 NOT1_550
*1522 N3640
*1523 OR2_1018
*1524 N2644
*1525 NOT1_548
*1526 N3639
*1527 OR2_1017
*1528 N2642
*1529 NOT1_546
*1530 N3638
*1531 OR2_1016
*1532 N2640
*1533 NOT1_544
*1534 N3637
*1535 OR2_1015
*1536 N2638
*1537 NOT1_542
*1538 N3636
*1539 OR2_1014
*1540 N2636
*1541 NOT1_540
*1542 N3635
*1543 OR2_1013
*1544 N2634
*1545 NOT1_538
*1546 N3634
*1547 OR3_1012
*1548 N2632
*1549 NOT1_536
*1550 N3633
*1551 AND2_1011
*1552 N2354
*1553 AND2_474
*1554 N2355
*1555 AND2_475
*1556 N3632
*1557 AND2_1010
*1558 N2352
*1559 AND2_472
*1560 N2353
*1561 AND2_473
*1562 N3478
*1563 NOT1_1004
*1564 BUFF1_962
*1565 N3627
*1566 NOT1_1005
*1567 N3481
*1568 BUFF1_963
*1569 N3626
*1570 N3472
*1571 NOT1_1008
*1572 BUFF1_960
*1573 N3631
*1574 NOT1_1009
*1575 N3475
*1576 BUFF1_961
*1577 N3630
*1578 N3384
*1579 BUFF1_910
*1580 N1922
*1581 AND2_772
*1582 AND2_771
*1583 N3447
*1584 OR3_949
*1585 N1909
*1586 AND2_767
*1587 N3415
*1588 OR3_935
*1589 N3463
*1590 AND3_955
*1591 N3466
*1592 AND3_956
*1593 N3455
*1594 AND3_951
*1595 N3458
*1596 AND3_952
*1597 N3451
*1598 NOR3_950
*1599 AND2_265
*1600 NAND2_54
*1601 AND2_53
*1602 NOT1_52
*1603 AND3_958
*1604 AND3_954
*1605 AND3_948
*1606 AND3_944
*1607 AND3_940
*1608 AND3_934
*1609 N3152
*1610 BUFF1_759
*1611 BUFF1_51
*1612 AND3_957
*1613 AND3_953
*1614 AND3_947
*1615 AND3_943
*1616 AND3_939
*1617 AND3_933
*1618 N3155
*1619 NOT1_760
*1620 BUFF1_62
*1621 AND2_55
*1622 AND3_946
*1623 AND3_942
*1624 AND3_938
*1625 AND3_932
*1626 OR2_81
*1627 AND3_945
*1628 AND3_941
*1629 AND3_937
*1630 AND3_931
*1631 N3439
*1632 N3442
*1633 N3431
*1634 N3434
*1635 N3423
*1636 N3426
*1637 N3419
*1638 NOR3_936
*1639 N3122
*1640 BUFF1_747
*1641 N3125
*1642 NOT1_748
*1643 N3407
*1644 N3410
*1645 N3535
*1646 OR3_979
*1647 N2643
*1648 AND2_547
*1649 N3551
*1650 AND2_995
*1651 N3552
*1652 AND2_996
*1653 N3549
*1654 AND2_993
*1655 N3550
*1656 AND2_994
*1657 N3547
*1658 AND2_991
*1659 N3548
*1660 AND2_992
*1661 N3545
*1662 AND2_989
*1663 N3546
*1664 AND2_990
*1665 N3543
*1666 AND2_987
*1667 N3544
*1668 AND2_988
*1669 N3541
*1670 AND2_985
*1671 N3542
*1672 AND2_986
*1673 N3539
*1674 AND2_983
*1675 N3540
*1676 AND2_984
*1677 N3537
*1678 AND2_981
*1679 N3538
*1680 AND2_982
*1681 N2398
*1682 AND2_480
*1683 N3534
*1684 NOR2_978
*1685 N2155
*1686 NOT1_408
*1687 N3536
*1688 NOR2_980
*1689 N2152
*1690 NOT1_405
*1691 N3471
*1692 OR2_959
*1693 N2728
*1694 N3469
*1695 N3470
*1696 N3171
*1697 NOT1_766
*1698 N3461
*1699 N3462
*1700 N3164
*1701 NOT1_763
*1702 N3445
*1703 N3446
*1704 N3148
*1705 NOT1_757
*1706 N3437
*1707 N3438
*1708 N3141
*1709 NOT1_754
*1710 N3429
*1711 N3430
*1712 N3134
*1713 NOT1_751
*1714 N3413
*1715 N3414
*1716 N3118
*1717 NOT1_745
*1718 N3405
*1719 NOR8_929
*1720 N1369
*1721 NOT1_279
*1722 NOT1_278
*1723 NOT1_277
*1724 NOT1_276
*1725 NOT1_275
*1726 NOT1_274
*1727 BUFF1_135
*1728 NOT1_280
*1729 N3397
*1730 NOR8_921
*1731 N1848
*1732 N3404
*1733 NOR8_928
*1734 N3396
*1735 NOR8_920
*1736 N1847
*1737 N3403
*1738 NOR8_927
*1739 N3395
*1740 NOR8_919
*1741 N1846
*1742 N3402
*1743 NOR8_926
*1744 N3394
*1745 NOR8_918
*1746 N1845
*1747 N3401
*1748 NOR8_925
*1749 N3393
*1750 NOR8_917
*1751 N1844
*1752 N3400
*1753 NOR8_924
*1754 N3392
*1755 NOR8_916
*1756 N1843
*1757 N3399
*1758 NOR8_923
*1759 N3391
*1760 NOR8_915
*1761 N1842
*1762 N3398
*1763 NOR8_922
*1764 N2210
*1765 NOT1_428
*1766 N3390
*1767 NOR8_914
*1768 N2209
*1769 NOT1_427
*1770 N3389
*1771 AND2_913
*1772 N1966
*1773 AND2_341
*1774 N3388
*1775 AND2_912
*1776 N2151
*1777 NOT1_404
*1778 N2351
*1779 AND2_471
*1780 N3387
*1781 AND2_911
*1782 N2350
*1783 AND2_470
*1784 N3187
*1785 N3184
*1786 N3181
*1787 AND2_770
*1788 N3178
*1789 AND2_769
*1790 N3175
*1791 AND2_768
*1792 N3172
*1793 N2973
*1794 NAND2_612
*1795 N2970
*1796 BUFF1_611
*1797 N2967
*1798 NAND2_610
*1799 N3194
*1800 AND5_777
*1801 N3383
*1802 AND5_909
*1803 N2719
*1804 NOR3_570
*1805 N3165
*1806 BUFF1_764
*1807 N3168
*1808 NOT1_765
*1809 N2715
*1810 OR3_569
*1811 N2706
*1812 NOR3_567
*1813 N3158
*1814 BUFF1_761
*1815 N3161
*1816 NOT1_762
*1817 N2702
*1818 OR3_566
*1819 N3149
*1820 AND2_758
*1821 N1895
*1822 NOR2_313
*1823 N2093
*1824 AND3_376
*1825 N2688
*1826 NOR3_563
*1827 N3142
*1828 BUFF1_755
*1829 N3145
*1830 NOT1_756
*1831 N2684
*1832 OR3_562
*1833 N2677
*1834 NOR3_560
*1835 N3135
*1836 BUFF1_752
*1837 N3138
*1838 NOT1_753
*1839 N2673
*1840 OR3_559
*1841 N2666
*1842 NOR3_557
*1843 N3128
*1844 BUFF1_749
*1845 N3131
*1846 NOT1_750
*1847 N2662
*1848 OR3_556
*1849 N3119
*1850 AND2_746
*1851 N1875
*1852 NOR2_301
*1853 N2073
*1854 AND3_372
*1855 N2652
*1856 NOR3_553
*1857 N3112
*1858 BUFF1_743
*1859 N3115
*1860 NOT1_744
*1861 N2648
*1862 OR3_552
*1863 N3206
*1864 OR3_780
*1865 N2641
*1866 AND2_545
*1867 extra49
*1868 NOR8_929_C
*1869 N3334
*1870 AND2_908
*1871 extra48
*1872 NOR8_929_B
*1873 N3332
*1874 AND2_906
*1875 N3333
*1876 AND2_907
*1877 extra47
*1878 NOR8_929_A
*1879 N3330
*1880 AND2_904
*1881 N3331
*1882 AND2_905
*1883 N3327
*1884 AND2_901
*1885 N3328
*1886 AND2_902
*1887 N3329
*1888 AND2_903
*1889 extra46
*1890 NOR8_928_C
*1891 N3326
*1892 AND2_900
*1893 extra45
*1894 NOR8_928_B
*1895 N3324
*1896 AND2_898
*1897 N3325
*1898 AND2_899
*1899 extra44
*1900 NOR8_928_A
*1901 N3322
*1902 AND2_896
*1903 N3323
*1904 AND2_897
*1905 N3319
*1906 AND2_893
*1907 N3320
*1908 AND2_894
*1909 N3321
*1910 AND2_895
*1911 extra43
*1912 NOR8_927_C
*1913 N3318
*1914 AND2_892
*1915 extra42
*1916 NOR8_927_B
*1917 N3316
*1918 AND2_890
*1919 N3317
*1920 AND2_891
*1921 extra41
*1922 NOR8_927_A
*1923 N3314
*1924 AND2_888
*1925 N3315
*1926 AND2_889
*1927 N3311
*1928 AND2_885
*1929 N3312
*1930 AND2_886
*1931 N3313
*1932 AND2_887
*1933 extra40
*1934 NOR8_926_C
*1935 N3310
*1936 AND2_884
*1937 extra39
*1938 NOR8_926_B
*1939 N3308
*1940 AND2_882
*1941 N3309
*1942 AND2_883
*1943 extra38
*1944 NOR8_926_A
*1945 N3306
*1946 AND2_880
*1947 N3307
*1948 AND2_881
*1949 N3303
*1950 AND2_877
*1951 N3304
*1952 AND2_878
*1953 N3305
*1954 AND2_879
*1955 extra37
*1956 NOR8_925_C
*1957 N3302
*1958 AND2_876
*1959 extra36
*1960 NOR8_925_B
*1961 N3300
*1962 AND2_874
*1963 N3301
*1964 AND2_875
*1965 extra35
*1966 NOR8_925_A
*1967 N3298
*1968 AND2_872
*1969 N3299
*1970 AND2_873
*1971 N3295
*1972 AND2_869
*1973 N3296
*1974 AND2_870
*1975 N3297
*1976 AND2_871
*1977 extra34
*1978 NOR8_924_C
*1979 N3294
*1980 AND2_868
*1981 extra33
*1982 NOR8_924_B
*1983 N3292
*1984 AND2_866
*1985 N3293
*1986 AND2_867
*1987 extra32
*1988 NOR8_924_A
*1989 N3290
*1990 AND2_864
*1991 N3291
*1992 AND2_865
*1993 N3287
*1994 AND2_861
*1995 N3288
*1996 AND2_862
*1997 N3289
*1998 AND2_863
*1999 extra31
*2000 NOR8_923_C
*2001 N3286
*2002 AND2_860
*2003 extra30
*2004 NOR8_923_B
*2005 N3284
*2006 AND2_858
*2007 N3285
*2008 AND2_859
*2009 extra29
*2010 NOR8_923_A
*2011 N3282
*2012 AND2_856
*2013 N3283
*2014 AND2_857
*2015 N3279
*2016 AND2_853
*2017 N3280
*2018 AND2_854
*2019 N3281
*2020 AND2_855
*2021 extra28
*2022 NOR8_922_C
*2023 N3278
*2024 AND2_852
*2025 extra27
*2026 NOR8_922_B
*2027 N3276
*2028 AND2_850
*2029 N3277
*2030 AND2_851
*2031 extra26
*2032 NOR8_922_A
*2033 N3274
*2034 AND2_848
*2035 N3275
*2036 AND2_849
*2037 N3271
*2038 AND2_845
*2039 N3272
*2040 AND2_846
*2041 N3273
*2042 AND2_847
*2043 extra25
*2044 NOR8_921_C
*2045 N3270
*2046 AND2_844
*2047 extra24
*2048 NOR8_921_B
*2049 N3268
*2050 AND2_842
*2051 N3269
*2052 AND2_843
*2053 extra23
*2054 NOR8_921_A
*2055 N3266
*2056 AND2_840
*2057 N3267
*2058 AND2_841
*2059 N3263
*2060 AND2_837
*2061 N3264
*2062 AND2_838
*2063 N3265
*2064 AND2_839
*2065 extra22
*2066 NOR8_920_C
*2067 N3262
*2068 AND2_836
*2069 extra21
*2070 NOR8_920_B
*2071 N3260
*2072 AND2_834
*2073 N3261
*2074 AND2_835
*2075 extra20
*2076 NOR8_920_A
*2077 N3258
*2078 AND2_832
*2079 N3259
*2080 AND2_833
*2081 N3255
*2082 AND2_829
*2083 N3256
*2084 AND2_830
*2085 N3257
*2086 AND2_831
*2087 extra19
*2088 NOR8_919_C
*2089 N3254
*2090 AND2_828
*2091 extra18
*2092 NOR8_919_B
*2093 N3252
*2094 AND2_826
*2095 N3253
*2096 AND2_827
*2097 extra17
*2098 NOR8_919_A
*2099 N3250
*2100 AND2_824
*2101 N3251
*2102 AND2_825
*2103 N3247
*2104 AND2_821
*2105 N3248
*2106 AND2_822
*2107 N3249
*2108 AND2_823
*2109 extra16
*2110 NOR8_918_C
*2111 N3246
*2112 AND2_820
*2113 extra15
*2114 NOR8_918_B
*2115 N3244
*2116 AND2_818
*2117 N3245
*2118 AND2_819
*2119 extra14
*2120 NOR8_918_A
*2121 N3242
*2122 AND2_816
*2123 N3243
*2124 AND2_817
*2125 N3239
*2126 AND2_813
*2127 N3240
*2128 AND2_814
*2129 N3241
*2130 AND2_815
*2131 extra13
*2132 NOR8_917_C
*2133 N3238
*2134 AND2_812
*2135 extra12
*2136 NOR8_917_B
*2137 N3236
*2138 AND2_810
*2139 N3237
*2140 AND2_811
*2141 extra11
*2142 NOR8_917_A
*2143 N3234
*2144 AND2_808
*2145 N3235
*2146 AND2_809
*2147 N3231
*2148 AND2_805
*2149 N3232
*2150 AND2_806
*2151 N3233
*2152 AND2_807
*2153 extra10
*2154 NOR8_916_C
*2155 N3230
*2156 AND2_804
*2157 extra9
*2158 NOR8_916_B
*2159 N3228
*2160 AND2_802
*2161 N3229
*2162 AND2_803
*2163 extra8
*2164 NOR8_916_A
*2165 N3226
*2166 AND2_800
*2167 N3227
*2168 AND2_801
*2169 N3223
*2170 AND2_797
*2171 N3224
*2172 AND2_798
*2173 N3225
*2174 AND2_799
*2175 extra7
*2176 NOR8_915_C
*2177 N3222
*2178 AND2_796
*2179 extra6
*2180 NOR8_915_B
*2181 N3220
*2182 AND2_794
*2183 N3221
*2184 AND2_795
*2185 extra5
*2186 NOR8_915_A
*2187 N3218
*2188 AND2_792
*2189 N3219
*2190 AND2_793
*2191 N3215
*2192 AND2_789
*2193 N3216
*2194 AND2_790
*2195 N3217
*2196 AND2_791
*2197 extra4
*2198 NOR8_914_C
*2199 N3214
*2200 AND2_788
*2201 extra3
*2202 NOR8_914_B
*2203 N3212
*2204 AND2_786
*2205 N3213
*2206 AND2_787
*2207 extra2
*2208 NOR8_914_A
*2209 N3210