*SPEF "1481-1998"
*DESIGN "c432"
*DATE "Wed Jul  2 15:14:23 2014"
*VENDOR "Synopsys, Inc."
*PROGRAM "icc_shell"
*VERSION "G-2012.06-ICC-SP5"
*DESIGN_FLOW "PIN_CAP NONE"
*DIVIDER /
*DELIMITER :
*BUS_DELIMITER [ ]
*T_UNIT 1 NS
*C_UNIT 1 FF
*R_UNIT 1 OHM
*L_UNIT 1 HENRY

*NAME_MAP
*1 N8
*2 N4
*3 N1
*4 VDD
*5 VSS
*6 N34
*7 N30
*8 N27
*9 N24
*10 N21
*11 N17
*12 N14
*13 N11
*14 N60
*15 N56
*16 N53
*17 N50
*18 N47
*19 N43
*20 N40
*21 N37
*22 N86
*23 N82
*24 N79
*25 N76
*26 N73
*27 N69
*28 N66
*29 N63
*30 N112
*31 N108
*32 N105
*33 N102
*34 N99
*35 N95
*36 N92
*37 N89
*38 N432
*39 N431
*40 N430
*41 N421
*42 N370
*43 N329
*44 N223
*45 N115
*46 N381
*47 NAND4_160
*48 NAND4_159
*49 NAND4_158
*50 AND8_148_A
*51 NAND4_139
*52 N422
*53 NAND2_154
*54 N425
*55 NAND4_155
*56 N429
*57 NAND4_157
*58 N386
*59 NAND4_140
*60 N428
*61 NAND3_156
*62 N399
*63 NAND4_142
*64 N393
*65 NOT1_149
*66 NAND4_141
*67 N407
*68 NOT1_151
*69 AND8_148_B
*70 NAND4_144
*71 N420
*72 NOT1_152
*73 N419
*74 N418
*75 NOT1_150
*76 N417
*77 N415
*78 NOR2_153
*79 NOT1_147
*80 N416
*81 AND8_148
*82 N411
*83 NAND4_145
*84 N404
*85 NAND4_143
*86 extra7
*87 N414
*88 NAND4_146
*89 extra6
*90 N380
*91 NAND4_138
*92 N259
*93 NAND2_67
*94 N347
*95 NAND2_116
*96 N379
*97 NAND2_137
*98 NAND2_29
*99 NOT1_18
*100 N258
*101 NAND2_66
*102 N346
*103 NAND2_115
*104 N378
*105 NAND2_136
*106 NAND2_28
*107 NOT1_16
*108 N257
*109 NAND2_65
*110 N345
*111 NAND2_114
*112 N377
*113 NAND2_135
*114 NAND2_27
*115 NOT1_14
*116 N256
*117 NAND2_64
*118 N344
*119 NAND2_113
*120 N376
*121 NAND2_134
*122 NAND2_26
*123 NOT1_12
*124 N255
*125 NAND2_63
*126 N342
*127 NAND2_111
*128 N375
*129 NAND2_133
*130 NAND2_25
*131 NOT1_10
*132 N254
*133 NAND2_62
*134 N340
*135 NAND2_109
*136 N374
*137 NAND2_132
*138 NAND2_24
*139 NOT1_8
*140 N250
*141 NAND2_60
*142 N338
*143 NAND2_107
*144 N373
*145 NAND2_131
*146 NAND2_23
*147 NOT1_6
*148 N246
*149 NAND2_58
*150 N336
*151 NAND2_105
*152 N372
*153 NAND2_130
*154 NAND2_22
*155 NOT1_4
*156 NAND2_19
*157 NOT1_2
*158 N242
*159 NAND2_56
*160 N334
*161 NAND2_103
*162 N371
*163 NAND2_129
*164 N360
*165 NOT1_127
*166 NOR2_45
*167 NOR2_43
*168 NOR2_41
*169 NOR2_39
*170 NOR2_37
*171 NOR2_35
*172 NOR2_33
*173 NOR2_31
*174 NOR2_21
*175 N357
*176 NOT1_128
*177 AND9_126
*178 extra5
*179 AND9_126_B
*180 N355
*181 NAND2_124
*182 N356
*183 NAND2_125
*184 extra4
*185 AND9_126_A
*186 N352
*187 NAND2_121
*188 N353
*189 NAND2_122
*190 N354
*191 NAND2_123
*192 N348
*193 NAND2_117
*194 N349
*195 NAND2_118
*196 N350
*197 NAND2_119
*198 N351
*199 NAND2_120
*200 N343
*201 XOR2_112
*202 N308
*203 NOT1_95
*204 N341
*205 XOR2_110
*206 N307
*207 NOT1_94
*208 N339
*209 XOR2_108
*210 N306
*211 NOT1_93
*212 N337
*213 XOR2_106
*214 N305
*215 NOT1_92
*216 N335
*217 XOR2_104
*218 N304
*219 NOT1_91
*220 N333
*221 XOR2_102
*222 N303
*223 NOT1_90
*224 N332
*225 XOR2_101
*226 N302
*227 NOT1_89
*228 N331
*229 XOR2_100
*230 N301
*231 NOT1_88
*232 N330
*233 XOR2_99
*234 N300
*235 NOT1_87
*236 N319
*237 NOT1_97
*238 NOR2_44
*239 NOR2_42
*240 NOR2_40
*241 NOR2_38
*242 N309
*243 NOT1_96
*244 N285
*245 AND9_86
*246 NAND2_77
*247 NOR2_36
*248 N282
*249 NAND2_76
*250 NOR2_34
*251 N279
*252 AND9_86_B
*253 NAND2_75
*254 NOR2_32
*255 N276
*256 NAND2_74
*257 NOR2_30
*258 N273
*259 NAND2_73
*260 NOR2_20
*261 N270
*262 AND9_86_A
*263 NAND2_72
*264 N267
*265 NAND2_71
*266 N264
*267 NAND2_70
*268 N260
*269 NAND2_68
*270 N296
*271 NOT1_98
*272 N295
*273 NAND2_85
*274 N294
*275 NAND2_84
*276 N293
*277 NAND2_83
*278 N292
*279 NAND2_82
*280 N291
*281 NAND2_81
*282 N290
*283 NAND2_80
*284 N289
*285 NAND2_79
*286 N288
*287 NAND2_78
*288 N263
*289 NAND2_69
*290 extra3
*291 extra2
*292 N251
*293 XOR2_61
*294 N198
*295 N247
*296 XOR2_59
*297 N196
*298 N243
*299 XOR2_57
*300 N194
*301 N239
*302 XOR2_55
*303 N192
*304 N236
*305 XOR2_54
*306 N190
*307 N233
*308 XOR2_53
*309 N188
*310 N230
*311 XOR2_52
*312 N186
*313 N227
*314 XOR2_51
*315 N184
*316 N197
*317 N195
*318 N193
*319 N191
*320 N189
*321 N187
*322 N185
*323 N183
*324 N224
*325 XOR2_50
*326 N158
*327 N157
*328 N213
*329 NOT1_48
*330 NOT1_17
*331 NOT1_15
*332 NOT1_13
*333 NOT1_11
*334 NOT1_9
*335 NOT1_7
*336 N203
*337 NOT1_47
*338 N180
*339 AND9_46
*340 NOT1_5
*341 N177
*342 NOT1_3
*343 N174
*344 AND9_46_B
*345 NOT1_1
*346 N171
*347 N168
*348 N165
*349 AND9_46_A
*350 N162
*351 N159
*352 N154
*353 N199
*354 NOT1_49
*355 extra1
*356 extra0
*357 N151
*358 N147
*359 N143
*360 N139
*361 N135
*362 N131
*363 N127
*364 N123
*365 N150
*366 N146
*367 N142
*368 N138
*369 N134
*370 N130
*371 N126
*372 N122
*373 N119
*374 N118

*PORTS
*1 I *L 0.0 *S 0.0 0.0
*2 I *L 0.0 *S 0.0 0.0
*3 I *L 0.0 *S 0.0 0.0
*4 I *L 0.0 *S 0.0 0.0
*5 I *L 0.0 *S 0.0 0.0
*6 I *L 0.0 *S 0.0 0.0
*7 I *L 0.0 *S 0.0 0.0
*8 I *L 0.0 *S 0.0 0.0
*9 I *L 0.0 *S 0.0 0.0
*10 I *L 0.0 *S 0.0 0.0
*11 I *L 0.0 *S 0.0 0.0
*12 I *L 0.0 *S 0.0 0.0
*13 I *L 0.0 *S 0.0 0.0
*14 I *L 0.0 *S 0.0 0.0
*15 I *L 0.0 *S 0.0 0.0
*16 I *L 0.0 *S 0.0 0.0
*17 I *L 0.0 *S 0.0 0.0
*18 I *L 0.0 *S 0.0 0.0
*19 I *L 0.0 *S 0.0 0.0
*20 I *L 0.0 *S 0.0 0.0
*21 I *L 0.0 *S 0.0 0.0
*22 I *L 0.0 *S 0.0 0.0
*23 I *L 0.0 *S 0.0 0.0
*24 I *L 0.0 *S 0.0 0.0
*25 I *L 0.0 *S 0.0 0.0
*26 I *L 0.0 *S 0.0 0.0
*27 I *L 0.0 *S 0.0 0.0
*28 I *L 0.0 *S 0.0 0.0
*29 I *L 0.0 *S 0.0 0.0
*30 I *L 0.0 *S 0.0 0.0
*31 I *L 0.0 *S 0.0 0.0
*32 I *L 0.0 *S 0.0 0.0
*33 I *L 0.0 *S 0.0 0.0
*34 I *L 0.0 *S 0.0 0.0
*35 I *L 0.0 *S 0.0 0.0
*36 I *L 0.0 *S 0.0 0.0
*37 I *L 0.0 *S 0.0 0.0
*38 O *L 0.0 *S 0.0 0.0
*39 O *L 0.0 *S 0.0 0.0
*40 O *L 0.0 *S 0.0 0.0
*41 O *L 0.0 *S 0.0 0.0
*42 O *L 0.0 *S 0.0 0.0
*43 O *L 0.0 *S 0.0 0.0
*44 O *L 0.0 *S 0.0 0.0
*45 I *L 0.0 *S 0.0 0.0

*D_NET *46 0.8262073

*CONN
*I *47:A1 I *L 1756.551 *C 0.855 0.93
*I *48:A1 I *L 1756.551 *C 1.235 2.47
*I *49:A1 I *L 1756.551 *C 2.185 2.47
*I *50:A1 I *L 985.6949 *C 0.855 3.73
*I *51:ZN O *L 0.0 *D NAND4_X1 *C 3.11 2.847
*N *46:6 *C 2.185 2.47
*N *46:7 *C 2.185 2.05
*N *46:8 *C 2.185 2.05
*N *46:9 *C 1.235 2.05
*N *46:10 *C 1.235 2.05
*N *46:11 *C 0.855 3.73
*N *46:12 *C 0.855 0.93
*N *46:13 *C 1.235 2.47
*N *46:14 *C 2.185 2.33
*N *46:15 *C 2.557 2.33
*N *46:16 *C 0.855 3.03
*N *46:17 *C 1.235 3.03

*CAP
1 *47:A1 0.0
2 *48:A1 0.0
3 *49:A1 0.002767522
4 *50:A1 0.0
5 *51:ZN 0.007984498
6 *46:6 0.04961714
7 *46:7 0.06369167
8 *46:8 0.04700656
9 *46:9 0.06369167
10 *46:10 0.03288684
11 *46:11 0.03641325
12 *46:12 0.1387439
13 *46:13 0.06050073
14 *46:14 0.03470388
15 *46:15 0.03733636
16 *46:16 0.203093
17 *46:17 0.04777023

*RES
1 *46:6 *49:A1 22.5
2 *46:7 *46:8 22.5
3 *46:9 *46:10 22.5
4 *46:11 *50:A1 22.5
5 *46:12 *47:A1 22.5
6 *46:13 *48:A1 22.5
7 *46:14 *46:15 1.298298
8 *46:14 *49:A1 0.2874271
9 *51:ZN *46:15 0.3710503
10 *46:12 *46:16 6.193207
11 *46:16 *46:11 1.922885
12 *46:16 *46:17 1.138583
13 *46:10 *46:13 1.124438
14 *46:13 *46:17 1.659972
15 *46:8 *46:6 0.7702927
16 *46:9 *46:7 2.528793

*END

*D_NET *52 0.5882128

*CONN
*I *47:A2 I *L 1806.822 *C 0.497 0.84
*I *49:A3 I *L 1841.567 *C 1.615 2.47
*I *53:ZN O *L 0.0 *D NAND2_X1 *C 2.375 1.21
*N *52:4 *C 0.475 0.65
*N *52:5 *C 0.475 0.65
*N *52:6 *C 0.665 1.35
*N *52:7 *C 0.665 1.35
*N *52:8 *C 2.375 1.21
*N *52:9 *C 2.375 1.35
*N *52:10 *C 2.375 1.35
*N *52:11 *C 1.615 2.47
*N *52:12 *C 1.615 1.35
*N *52:13 *C 1.615 1.35
*N *52:14 *C 0.665 0.65

*CAP
1 *47:A2 0.007487344
2 *49:A3 0.0
3 *53:ZN 0.0
4 *52:4 0.01810496
5 *52:5 0.004902851
6 *52:6 0.0750534
7 *52:7 0.03939346
8 *52:8 0.006326721
9 *52:9 0.05861596
10 *52:10 0.006313677
11 *52:11 0.08524779
12 *52:12 0.1362669
13 *52:13 0.0852217
14 *52:14 0.06527799

*RES
1 *47:A2 *52:5 0.1487859
2 *52:4 *52:5 22.5
3 *52:6 *52:7 22.5
4 *52:8 *53:ZN 22.5
5 *52:9 *52:10 22.5
6 *52:11 *49:A3 22.5
7 *52:12 *52:13 22.5
8 *52:4 *52:14 0.8838997
9 *52:14 *52:7 2.30339
10 *52:13 *52:11 3.057744
11 *52:8 *52:10 0.1311312
12 *52:6 *52:12 4.431658
13 *52:12 *52:9 3.261704

*END

*D_NET *54 0.7960205

*CONN
*I *47:A3 I *L 1841.567 *C 0.285 0.93
*I *48:A3 I *L 1841.567 *C 0.665 2.47
*I *55:ZN O *L 0.0 *D NAND4_X1 *C 3.075 3.31
*N *54:4 *C 3.075 3.31
*N *54:5 *C 3.075 3.31
*N *54:6 *C 0.655 3.31
*N *54:7 *C 0.655 3.31
*N *54:8 *C 0.655 2.61
*N *54:9 *C 0.655 2.61
*N *54:10 *C 0.655 2.61
*N *54:11 *C 0.665 2.47
*N *54:12 *C 0.285 0.93
*N *54:13 *C 0.475 0.93
*N *54:14 *C 0.475 2.47

*CAP
1 *47:A3 0.0
2 *48:A3 0.0
3 *55:ZN 0.0
4 *54:4 0.008006512
5 *54:5 0.1921279
6 *54:6 0.06329716
7 *54:7 0.1788523
8 *54:8 0.06329716
9 *54:9 0.01222902
10 *54:10 0.02630191
11 *54:11 0.01957664
12 *54:12 0.02614908
13 *54:13 0.1147063
14 *54:14 0.09147651

*RES
1 *54:4 *55:ZN 22.5
2 *54:5 *54:4 22.5
3 *54:6 *54:7 22.5
4 *54:8 *54:9 22.5
5 *54:9 *54:10 22.5
6 *54:11 *48:A3 22.5
7 *54:12 *47:A3 22.5
8 *54:12 *54:13 0.5692913
9 *54:13 *54:14 4.242783
10 *54:14 *54:11 0.4044965
11 *54:11 *54:10 0.5071903
12 *54:7 *54:5 9.73293
13 *54:8 *54:6 1.555353

*END

*D_NET *56 0.7728016

*CONN
*I *47:A4 I *L 1855.86 *C 0.095 0.93
*I *57:ZN O *L 0.0 *D NAND4_X1 *C 1.425 4.85
*N *56:3 *C 1.425 4.85
*N *56:4 *C 1.425 4.85
*N *56:5 *C 0.935 4.85
*N *56:6 *C 0.935 4.85
*N *56:7 *C 0.935 2.19
*N *56:8 *C 0.935 2.19
*N *56:9 *C 0.095 2.19
*N *56:10 *C 0.095 2.19
*N *56:11 *C 0.095 0.93

*CAP
1 *47:A4 0.0
2 *57:ZN 0.0
3 *56:3 0.007371237
4 *56:4 0.05694983
5 *56:5 0.1734305
6 *56:6 0.04430945
7 *56:7 0.1734305
8 *56:8 0.06758468
9 *56:9 0.06765876
10 *56:10 0.08972802
11 *56:11 0.0923386

*RES
1 *56:3 *57:ZN 22.5
2 *56:4 *56:3 22.5
3 *56:5 *56:6 22.5
4 *56:7 *56:8 22.5
5 *56:9 *56:10 22.5
6 *56:11 *47:A4 22.5
7 *56:11 *56:10 3.079481
8 *56:9 *56:8 3.621912
9 *56:6 *56:4 2.270231
10 *56:7 *56:5 5.175504

*END

*D_NET *38 0.1361669

*CONN
*I *47:ZN O *L 0.0 *D NAND4_X1 *C 0.855 0.65
*P *38 O *C 0.035 0.79
*N *38:3 *C 0.855 0.65
*N *38:4 *C 0.855 0.65
*N *38:5 *C 0.07 0.65

*CAP
1 *47:ZN 0.0
2 *38 0.008141554
3 *38:3 0.009718176
4 *38:4 0.05994187
5 *38:5 0.05836526

*RES
1 *38:3 *47:ZN 22.5
2 *38:4 *38:3 22.5
3 *38:5 *38 0.3652982
4 *38:5 *38:4 2.194894

*END

*D_NET *58 1.876331

*CONN
*I *48:A2 I *L 1806.822 *C 0.877 2.56
*I *49:A2 I *L 1806.822 *C 1.805 2.47
*I *57:A1 I *L 1756.551 *C 1.967 5.287
*I *55:A1 I *L 1756.551 *C 3.135 3.73
*I *53:A1 I *L 1841.374 *C 2.537 0.912
*I *50:A2 I *L 1024.42 *C 1.045 3.73
*I *59:ZN O *L 0.0 *D NAND4_X1 *C 3.705 3.975
*N *58:8 *C 3.705 3.975
*N *58:9 *C 3.705 4.15
*N *58:10 *C 3.705 4.15
*N *58:11 *C 1.045 4.71
*N *58:12 *C 1.045 4.71
*N *58:13 *C 1.995 4.71
*N *58:14 *C 1.995 4.71
*N *58:15 *C 1.995 5.13
*N *58:16 *C 1.995 5.13
*N *58:17 *C 2.565 1.07
*N *58:18 *C 2.565 1.07
*N *58:19 *C 2.565 1.21
*N *58:20 *C 2.565 1.21
*N *58:21 *C 1.215 1.21
*N *58:22 *C 1.215 1.21
*N *58:23 *C 3.135 3.73
*N *58:24 *C 3.135 4.15
*N *58:25 *C 3.135 4.15
*N *58:26 *C 1.045 3.73
*N *58:27 *C 1.215 3.73
*N *58:28 *C 1.215 3.73
*N *58:29 *C 1.045 3.73
*N *58:30 *C 1.805 2.47
*N *58:31 *C 1.805 2.47
*N *58:32 *C 1.215 2.47
*N *58:33 *C 1.215 2.47
*N *58:34 *C 1.045 4.15
*N *58:35 *C 1.045 4.15
*N *58:36 *C 1.215 2.89
*N *58:37 *C 1.215 2.89
*N *58:38 *C 0.665 2.89
*N *58:39 *C 0.665 2.89
*N *58:40 *C 0.665 2.89
*N *58:41 *C 0.855 2.89

*CAP
1 *48:A2 0.01183197
2 *49:A2 0.0
3 *57:A1 0.007612151
4 *55:A1 0.0
5 *53:A1 0.007188657
6 *50:A2 0.0
7 *59:ZN 0.0
8 *58:8 0.02735744
9 *58:9 0.03228654
10 *58:10 0.02474686
11 *58:11 0.06477904
12 *58:12 0.0469382
13 *58:13 0.06477904
14 *58:14 0.0492127
15 *58:15 0.05182328
16 *58:16 0.005027658
17 *58:17 0.01929276
18 *58:18 0.004604165
19 *58:19 0.1101846
20 *58:20 0.01668218
21 *58:21 0.06695378
22 *58:22 0.1101105
23 *58:23 0.04710849
24 *58:24 0.1707523
25 *58:25 0.04449791
26 *58:26 0.0532566
27 *58:27 0.05410974
28 *58:28 0.0232208
29 *58:29 0.02589241
30 *58:30 0.01870443
31 *58:31 0.07138447
32 *58:32 0.09148722
33 *58:33 0.04741091
34 *58:34 0.1358682
35 *58:35 0.1053899
36 *58:36 0.07864319
37 *58:37 0.04804688
38 *58:38 0.04812096
39 *58:39 0.0126525
40 *58:40 0.03959638
41 *58:41 0.03877585

*RES
1 *58:8 *59:ZN 22.5
2 *58:9 *58:10 22.5
3 *58:11 *58:12 22.5
4 *58:13 *58:14 22.5
5 *57:A1 *58:16 0.1500072
6 *58:15 *58:16 22.5
7 *53:A1 *58:18 0.1496001
8 *58:17 *58:18 22.5
9 *58:19 *58:20 22.5
10 *58:21 *58:22 22.5
11 *58:23 *55:A1 22.5
12 *58:24 *58:25 22.5
13 *58:26 *50:A2 22.5
14 *58:27 *58:28 22.5
15 *58:29 *58:26 22.5
16 *58:30 *49:A2 22.5
17 *58:31 *58:30 22.5
18 *58:32 *58:33 22.5
19 *58:34 *58:35 22.5
20 *58:36 *58:37 22.5
21 *58:38 *58:39 22.5
22 *58:39 *58:40 22.5
23 *58:40 *58:41 0.966969
24 *48:A2 *58:41 0.5815818
25 *58:26 *58:35 1.487322
26 *58:35 *58:12 1.608537
27 *58:14 *58:15 0.7225691
28 *58:17 *58:20 0.4639622
29 *58:23 *58:25 0.8184956
30 *58:8 *58:10 0.4815126
31 *58:38 *58:37 1.970533
32 *58:29 *58:28 1.088079
33 *58:34 *58:24 6.427808
34 *58:24 *58:9 1.671553
35 *58:11 *58:13 3.01886
36 *58:22 *58:19 6.330063
37 *58:33 *58:31 2.022114
38 *58:21 *58:32 2.444203
39 *58:32 *58:36 0.7733325
40 *58:36 *58:27 1.675554

*END

*D_NET *60 0.1732505

*CONN
*I *48:A4 I *L 1855.86 *C 0.475 2.61
*I *61:ZN O *L 0.0 *D NAND3_X1 *C 0.64 3.575
*N *60:3 *C 0.475 2.61
*N *60:4 *C 0.475 3.45
*N *60:5 *C 0.475 3.45

*CAP
1 *48:A4 0.0
2 *61:ZN 0.01638495
3 *60:3 0.07153255
4 *60:4 0.07153255
5 *60:5 0.01380045

*RES
1 *60:3 *48:A4 22.5
2 *60:4 *60:5 22.5
3 *60:5 *61:ZN 0.6177005
4 *60:3 *60:4 2.12821

*END

*D_NET *39 0.1083232

*CONN
*I *48:ZN O *L 0.0 *D NAND4_X1 *C 0.665 2.05
*P *39 O *C 0.035 1.91
*N *39:3 *C 0.665 2.05
*N *39:4 *C 0.665 2.05
*N *39:5 *C 0.095 2.05

*CAP
1 *48:ZN 0.0
2 *39 0.008195761
3 *39:3 0.007664095
4 *39:4 0.04596582
5 *39:5 0.04649749

*RES
1 *39:3 *48:ZN 22.5
2 *39:4 *39:3 22.5
3 *39 *39:5 0.3663423
4 *39:5 *39:4 1.403706

*END

*D_NET *62 1.938157

*CONN
*I *49:A4 I *L 1855.86 *C 1.425 2.61
*I *61:A1 I *L 1831.595 *C 0.475 3.73
*I *55:A4 I *L 1855.86 *C 2.375 3.73
*I *50:A4 I *L 1049.666 *C 1.48 3.73
*I *63:ZN O *L 0.0 *D NAND4_X1 *C 13.37 3.352
*N *62:6 *C 1.425 3.87
*N *62:7 *C 1.425 3.87
*N *62:8 *C 2.375 3.73
*N *62:9 *C 2.375 3.87
*N *62:10 *C 2.375 3.87
*N *62:11 *C 0.475 3.73
*N *62:12 *C 0.475 3.73
*N *62:13 *C 1.425 2.61
*N *62:14 *C 12.825 3.87
*N *62:15 *C 12.825 3.87
*N *62:16 *C 12.825 3.87
*N *62:17 *C 1.48 3.73
*N *62:18 *C 1.452 3.77
*N *62:19 *C 0.475 3.87

*CAP
1 *49:A4 0.0
2 *61:A1 0.0
3 *55:A4 0.0
4 *50:A4 0.0
5 *63:ZN 0.01076319
6 *62:6 0.1124072
7 *62:7 0.03061564
8 *62:8 0.005492604
9 *62:9 0.7292861
10 *62:10 0.002882024
11 *62:11 0.01870443
12 *62:12 0.04090638
13 *62:13 0.08062117
14 *62:14 0.6713613
15 *62:15 0.01145664
16 *62:16 0.02221983
17 *62:17 0.09401228
18 *62:18 0.02814627
19 *62:19 0.07928191

*RES
1 *62:6 *62:7 22.5
2 *62:8 *55:A4 22.5
3 *62:9 *62:10 22.5
4 *62:11 *61:A1 22.5
5 *62:12 *62:11 22.5
6 *62:13 *49:A4 22.5
7 *62:14 *62:15 22.5
8 *62:15 *62:16 22.5
9 *62:17 *50:A4 22.5
10 *62:16 *63:ZN 0.3457371
11 *62:13 *62:17 3.287478
12 *62:17 *62:18 0.2037331
13 *62:18 *62:7 0.1996314
14 *62:7 *62:17 0.366384
15 *62:10 *62:8 0.130372
16 *62:12 *62:19 0.4657511
17 *62:19 *62:6 2.449385
18 *62:6 *62:9 2.51819
19 *62:9 *62:14 36.06295

*END

*D_NET *40 0.528878

*CONN
*I *49:ZN O *L 0.0 *D NAND4_X1 *C 2.185 2.75
*P *40 O *C 0.035 3.17
*N *40:3 *C 2.185 2.75
*N *40:4 *C 2.185 2.89
*N *40:5 *C 2.185 2.89
*N *40:6 *C 2.895 2.89
*N *40:7 *C 2.895 2.89
*N *40:8 *C 2.895 3.17
*N *40:9 *C 2.895 3.17

*CAP
1 *49:ZN 0.0
2 *40 0.1820796
3 *40:3 0.01866238
4 *40:4 0.0366451
5 *40:5 0.0160518
6 *40:6 0.03102884
7 *40:7 0.03657103
8 *40:8 0.03102884
9 *40:9 0.1768104

*RES
1 *40:3 *49:ZN 22.5
2 *40:4 *40:5 22.5
3 *40:6 *40:7 22.5
4 *40:8 *40:9 22.5
5 *40:3 *40:5 0.4529301
6 *40 *40:9 7.925101
7 *40:4 *40:7 2.230454
8 *40:6 *40:8 0.7661784

*END

*D_NET *64 2.954615

*CONN
*I *57:A2 I *L 1806.822 *C 1.615 5.27
*I *61:A2 I *L 1840.442 *C 0.285 3.59
*I *55:A2 I *L 1806.822 *C 2.755 3.59
*I *65:A I *L 1938.113 *C 0.095 2.47
*I *50:A3 I *L 1037.372 *C 1.235 3.73
*I *66:ZN O *L 0.0 *D NAND4_X1 *C 12.635 9.19
*N *64:7 *C 12.635 9.19
*N *64:8 *C 12.635 9.19
*N *64:9 *C 7.375 9.19
*N *64:10 *C 7.375 9.19
*N *64:11 *C 7.375 5.41
*N *64:12 *C 7.375 5.41
*N *64:13 *C 1.615 5.41
*N *64:14 *C 1.615 5.41
*N *64:15 *C 2.755 3.59
*N *64:16 *C 2.755 3.59
*N *64:17 *C 1.235 3.73
*N *64:18 *C 1.045 3.45
*N *64:19 *C 1.045 3.45
*N *64:20 *C 0.285 3.59
*N *64:21 *C 0.285 3.59
*N *64:22 *C 1.615 5.27
*N *64:23 *C 0.095 2.47
*N *64:24 *C 0.095 3.45
*N *64:25 *C 0.285 3.45
*N *64:26 *C 1.235 3.45
*N *64:27 *C 1.235 4.15
*N *64:28 *C 1.615 4.15
*N *64:29 *C 1.045 3.59
*N *64:30 *C 2.335 3.45
*N *64:31 *C 2.335 3.59

*CAP
1 *57:A2 0.0
2 *61:A2 0.01161985
3 *55:A2 0.0
4 *65:A 0.0
5 *50:A3 0.0
6 *66:ZN 0.0
7 *64:7 0.01613169
8 *64:8 0.3987906
9 *64:9 0.204984
10 *64:10 0.3773898
11 *64:11 0.204984
12 *64:12 0.3939566
13 *64:13 0.3966282
14 *64:14 0.005855021
15 *64:15 0.01759811
16 *64:16 0.04269803
17 *64:17 0.04428094
18 *64:18 0.08111972
19 *64:19 0.02411461
20 *64:20 0.04436334
21 *64:21 0.04648617
22 *64:22 0.07559771
23 *64:23 0.06818913
24 *64:24 0.08215709
25 *64:25 0.04413999
26 *64:26 0.04661715
27 *64:27 0.05490509
28 *64:28 0.09507677
29 *64:29 0.05650772
30 *64:30 0.08710698
31 *64:31 0.03331612

*RES
1 *64:7 *66:ZN 22.5
2 *64:8 *64:7 22.5
3 *64:9 *64:10 22.5
4 *64:11 *64:12 22.5
5 *64:13 *64:14 22.5
6 *64:15 *55:A2 22.5
7 *64:16 *64:15 22.5
8 *64:17 *50:A3 22.5
9 *64:18 *64:19 22.5
10 *64:20 *61:A2 22.5
11 *64:21 *64:20 22.5
12 *64:22 *57:A2 22.5
13 *64:23 *65:A 22.5
14 *64:23 *64:24 2.217376
15 *64:24 *64:25 0.5692913
16 *64:25 *64:20 0.3482452
17 *64:19 *64:26 0.4644219
18 *64:26 *64:17 0.7746533
19 *64:17 *64:27 1.438642
20 *64:27 *64:28 1.138582
21 *64:28 *64:22 3.182599
22 *64:22 *64:14 0.1326496
23 *64:21 *64:29 2.957233
24 *64:18 *64:30 3.800858
25 *64:18 *64:29 0.3633208
26 *64:13 *64:12 18.98768
27 *64:30 *64:31 0.4310342
28 *64:31 *64:16 1.218391
29 *64:10 *64:8 21.13865
30 *64:11 *64:9 6.996167

*END

*D_NET *67 1.938666

*CONN
*I *57:A3 I *L 1841.567 *C 1.425 5.27
*I *68:A I *L 1938.113 *C 0.475 5.27
*I *69:A3 I *L 1037.372 *C 2.375 6.53
*I *70:ZN O *L 0.0 *D NAND4_X1 *C 5.985 12.55
*N *67:5 *C 1.425 5.27
*N *67:6 *C 2.375 5.83
*N *67:7 *C 2.375 5.83
*N *67:8 *C 2.375 6.53
*N *67:9 *C 0.475 5.27
*N *67:10 *C 0.475 5.27
*N *67:11 *C 1.425 5.27
*N *67:12 *C 1.425 5.97
*N *67:13 *C 1.425 5.97
*N *67:14 *C 5.985 12.55
*N *67:15 *C 5.985 12.69
*N *67:16 *C 5.985 12.69
*N *67:17 *C 1.495 12.69
*N *67:18 *C 1.495 12.69
*N *67:19 *C 1.495 5.97
*N *67:20 *C 1.495 5.83

*CAP
1 *57:A3 0.0
2 *68:A 0.0
3 *69:A3 0.0
4 *70:ZN 0.0
5 *67:5 0.06605015
6 *67:6 0.0467385
7 *67:7 0.0659688
8 *67:8 0.06599488
9 *67:9 0.007373396
10 *67:10 0.09584808
11 *67:11 0.08327962
12 *67:12 0.01728788
13 *67:13 0.06605015
14 *67:14 0.01945164
15 *67:15 0.2431492
16 *67:16 0.01684107
17 *67:17 0.4135336
18 *67:18 0.2430751
19 *67:19 0.4135336
20 *67:20 0.07449059

*RES
1 *67:5 *57:A3 22.5
2 *67:6 *67:7 22.5
3 *67:8 *69:A3 22.5
4 *67:9 *68:A 22.5
5 *67:10 *67:9 22.5
6 *67:11 *67:5 22.5
7 *67:12 *67:13 22.5
8 *67:14 *70:ZN 22.5
9 *67:15 *67:16 22.5
10 *67:17 *67:18 22.5
11 *67:19 *67:12 22.5
12 *67:5 *67:13 1.546726
13 *67:7 *67:8 2.317069
14 *67:14 *67:16 0.4746783
15 *67:10 *67:11 4.83627
16 *67:20 *67:12 0.4364666
17 *67:20 *67:6 2.497361
18 *67:18 *67:15 11.85551
19 *67:19 *67:17 12.66094

*END

*D_NET *71 0.01276264

*CONN
*I *57:A4 I *L 1855.86 *C 1.262 5.36
*I *72:ZN O *L 0.0 *D INV_X1 *C 1.037 5.2

*CAP
1 *57:A4 0.006381318
2 *72:ZN 0.006381318

*RES
1 *72:ZN *57:A4 0.3081084

*END

*D_NET *73 0.2206975

*CONN
*I *61:A3 I *L 1861.175 *C 0.095 3.73
*I *68:ZN O *L 0.0 *D INV_X1 *C 0.665 4.71
*N *73:3 *C 0.095 3.73
*N *73:4 *C 0.665 4.71
*N *73:5 *C 0.095 4.71

*CAP
1 *61:A3 0.0
2 *68:ZN 0.0
3 *73:3 0.06103064
4 *73:4 0.0467336
5 *73:5 0.1129332

*RES
1 *73:3 *61:A3 22.5
2 *73:4 *68:ZN 22.5
3 *73:3 *73:5 2.45908
4 *73:5 *73:4 1.42387

*END

*D_NET *74 0.2853156

*CONN
*I *55:A3 I *L 1841.567 *C 2.565 3.73
*I *75:ZN O *L 0.0 *D INV_X1 *C 2.375 4.71
*N *74:3 *C 2.375 4.71
*N *74:4 *C 2.375 4.71
*N *74:5 *C 2.565 4.29
*N *74:6 *C 2.565 4.29
*N *74:7 *C 2.565 3.73
*N *74:8 *C 3.135 4.71
*N *74:9 *C 3.135 4.29

*CAP
1 *55:A3 0.0
2 *75:ZN 0.0
3 *74:3 0.009841175
4 *74:4 0.04651505
5 *74:5 0.02982802
6 *74:6 0.04379271
7 *74:7 0.0438188
8 *74:8 0.05658531
9 *74:9 0.05493453

*RES
1 *74:3 *75:ZN 22.5
2 *74:4 *74:3 22.5
3 *74:5 *74:6 22.5
4 *74:7 *55:A3 22.5
5 *74:7 *74:6 1.296503
6 *74:4 *74:8 1.994487
7 *74:5 *74:9 1.679951
8 *74:9 *74:8 1.112637

*END

*D_NET *76 0.464597

*CONN
*I *53:A2 I *L 1883.517 *C 2.212 0.912
*I *65:ZN O *L 0.0 *D INV_X1 *C 0.285 1.91
*N *76:3 *C 0.285 1.91
*N *76:4 *C 0.285 1.49
*N *76:5 *C 0.285 1.49
*N *76:6 *C 2.185 1.49
*N *76:7 *C 2.185 1.49
*N *76:8 *C 2.185 1.07
*N *76:9 *C 2.185 1.07

*CAP
1 *53:A2 0.008463344
2 *65:ZN 0.0
3 *76:3 0.05040395
4 *76:4 0.1272201
5 *76:5 0.04779337
6 *76:6 0.1272201
7 *76:7 0.04750335
8 *76:8 0.05011393
9 *76:9 0.005878851

*RES
1 *76:3 *65:ZN 22.5
2 *76:4 *76:5 22.5
3 *76:6 *76:7 22.5
4 *53:A2 *76:9 0.1504144
5 *76:8 *76:9 22.5
6 *76:5 *76:3 1.367506
7 *76:8 *76:7 0.8369334
8 *76:4 *76:6 5.455306

*END

*D_NET *77 1.106003

*CONN
*I *78:A1 I *L 1861.193 *C 2.945 5.27
*I *79:ZN O *L 0.0 *D INV_X1 *C 6.745 1.91
*N *77:3 *C 6.745 1.91
*N *77:4 *C 6.745 1.91
*N *77:5 *C 5.975 1.91
*N *77:6 *C 5.975 1.91
*N *77:7 *C 5.975 5.27
*N *77:8 *C 5.975 5.27
*N *77:9 *C 2.945 5.27
*N *77:10 *C 2.945 5.27

*CAP
1 *78:A1 0.01134357
2 *79:ZN 0.0
3 *77:3 0.008754869
4 *77:4 0.08445867
5 *77:5 0.2201492
6 *77:6 0.07043465
7 *77:7 0.2201492
8 *77:8 0.2396477
9 *77:9 0.2397218
10 *77:10 0.01134357

*RES
1 *77:3 *79:ZN 22.5
2 *77:4 *77:3 22.5
3 *77:5 *77:6 22.5
4 *77:7 *77:8 22.5
5 *77:9 *77:10 22.5
6 *77:10 *78:A1 22.5
7 *77:9 *77:8 13.95466
8 *77:6 *77:4 4.072736
9 *77:5 *77:7 6.29882

*END

*D_NET *80 0.2784587

*CONN
*I *78:A2 I *L 1913.615 *C 2.565 5.27
*I *81:ZN O *L 0.0 *D AND2_X1 *C 1.805 6.11
*N *80:3 *C 2.565 5.27
*N *80:4 *C 2.565 6.11
*N *80:5 *C 2.565 6.11
*N *80:6 *C 1.805 6.11
*N *80:7 *C 1.805 6.11

*CAP
1 *78:A2 0.0
2 *81:ZN 0.01189992
3 *80:3 0.07475872
4 *80:4 0.05257723
5 *80:5 0.07214814
6 *80:6 0.05517477
7 *80:7 0.01189992

*RES
1 *80:3 *78:A2 22.5
2 *80:4 *80:5 22.5
3 *80:6 *80:7 22.5
4 *80:7 *81:ZN 22.5
5 *80:3 *80:5 1.806682
6 *80:6 *80:4 2.500543

*END

*D_NET *41 0.5253744

*CONN
*I *78:ZN O *L 0.0 *D NOR2_X1 *C 2.755 4.99
*P *41 O *C 0.035 4.29
*N *41:3 *C 1.495 4.29
*N *41:4 *C 1.495 4.29
*N *41:5 *C 1.495 4.99
*N *41:6 *C 1.495 4.99
*N *41:7 *C 2.755 4.99
*N *41:8 *C 2.755 4.99

*CAP
1 *78:ZN 0.01200211
2 *41 0.1056882
3 *41:3 0.05494595
4 *41:4 0.1004191
5 *41:5 0.05494595
6 *41:6 0.09264845
7 *41:7 0.09272253
8 *41:8 0.01200211

*RES
1 *41:3 *41:4 22.5
2 *41:5 *41:6 22.5
3 *41:7 *41:8 22.5
4 *41:8 *78:ZN 22.5
5 *41 *41:4 5.386206
6 *41:6 *41:7 3.896972
7 *41:3 *41:5 1.545802

*END

*D_NET *82 1.452424

*CONN
*I *72:A I *L 1938.113 *C 0.855 5.27
*I *69:A4 I *L 1049.666 *C 2.565 6.53
*I *83:ZN O *L 0.0 *D NAND4_X1 *C 3.3 11.752
*N *82:4 *C 3.135 11.71
*N *82:5 *C 3.135 11.71
*N *82:6 *C 3.135 11.57
*N *82:7 *C 3.135 11.57
*N *82:8 *C 1.215 11.57
*N *82:9 *C 1.215 11.57
*N *82:10 *C 0.855 5.27
*N *82:11 *C 0.855 5.69
*N *82:12 *C 0.855 5.69
*N *82:13 *C 0.935 5.69
*N *82:14 *C 1.215 6.95
*N *82:15 *C 1.215 6.95
*N *82:16 *C 2.565 6.95
*N *82:17 *C 2.565 6.95
*N *82:18 *C 2.565 6.53
*N *82:19 *C 0.935 6.53
*N *82:20 *C 1.215 6.53

*CAP
1 *72:A 0.0
2 *69:A4 0.0
3 *83:ZN 0.02061727
4 *82:4 0.005880498
5 *82:5 0.01803278
6 *82:6 0.1388026
7 *82:7 0.003269918
8 *82:8 0.2791234
9 *82:9 0.1387285
10 *82:10 0.05618196
11 *82:11 0.00778929
12 *82:12 0.05357138
13 *82:13 0.04714915
14 *82:14 0.3006069
15 *82:15 0.09906488
16 *82:16 0.09913895
17 *82:17 0.04553879
18 *82:18 0.04814938
19 *82:19 0.05432745
20 *82:20 0.03645108

*RES
1 *82:4 *82:5 22.5
2 *82:6 *82:7 22.5
3 *82:8 *82:9 22.5
4 *82:10 *72:A 22.5
5 *82:11 *82:12 22.5
6 *82:13 *82:11 22.5
7 *82:14 *82:15 22.5
8 *82:16 *82:17 22.5
9 *82:18 *69:A4 22.5
10 *82:5 *83:ZN 0.8897348
11 *82:10 *82:12 0.9858771
12 *82:18 *82:17 0.7769964
13 *82:7 *82:4 0.1311312
14 *82:15 *82:16 4.942375
15 *82:9 *82:6 6.362314
16 *82:13 *82:19 1.805582
17 *82:19 *82:20 0.5158413
18 *82:20 *82:14 0.6470495
19 *82:14 *82:8 8.658528

*END

*D_NET *84 2.397902

*CONN
*I *75:A I *L 1938.113 *C 2.185 5.27
*I *69:A2 I *L 1024.42 *C 2.185 6.53
*I *85:ZN O *L 0.0 *D NAND4_X1 *C 12.955 11.71
*N *84:4 *C 12.955 11.71
*N *84:5 *C 12.955 11.71
*N *84:6 *C 1.775 11.71
*N *84:7 *C 1.775 11.71
*N *84:8 *C 1.775 6.53
*N *84:9 *C 1.775 6.53
*N *84:10 *C 2.185 6.53
*N *84:11 *C 2.185 6.53
*N *84:12 *C 2.185 5.27

*CAP
1 *75:A 0.0
2 *69:A2 0.0
3 *85:ZN 0.0
4 *84:4 0.008364809
5 *84:5 0.7546726
6 *84:6 0.2901355
7 *84:7 0.7410386
8 *84:8 0.2901355
9 *84:9 0.04498583
10 *84:10 0.0450599
11 *84:11 0.1117544
12 *84:12 0.1117544

*RES
1 *84:4 *85:ZN 22.5
2 *84:5 *84:4 22.5
3 *84:6 *84:7 22.5
4 *84:8 *84:9 22.5
5 *84:10 *84:11 22.5
6 *84:12 *75:A 22.5
7 *84:11 *69:A2 22.5
8 *84:12 *84:11 3.612925
9 *84:9 *84:10 2.590543
10 *84:7 *84:5 40.20517
11 *84:8 *84:6 9.787628

*END

*D_NET *86 0.3595858

*CONN
*I *81:A1 I *L 1060.224 *C 1.235 6.53
*I *69:ZN O *L 0.0 *D AND4_X1 *C 2.945 6.81
*N *86:3 *C 1.235 6.53
*N *86:4 *C 1.235 6.81
*N *86:5 *C 1.235 6.81
*N *86:6 *C 2.945 6.81
*N *86:7 *C 2.945 6.81

*CAP
1 *81:A1 0.0
2 *69:ZN 0.009705671
3 *86:3 0.03907086
4 *86:4 0.1323217
5 *86:5 0.03646028
6 *86:6 0.1323217
7 *86:7 0.009705671

*RES
1 *86:3 *81:A1 22.5
2 *86:4 *86:5 22.5
3 *86:6 *86:7 22.5
4 *86:7 *69:ZN 22.5
5 *86:3 *86:5 0.924435
6 *86:4 *86:6 6.618983

*END

*D_NET *87 0.5959863

*CONN
*I *81:A2 I *L 1092.433 *C 1.425 6.53
*I *88:ZN O *L 0.0 *D NAND4_X1 *C 1.805 8.91
*N *87:3 *C 1.805 8.91
*N *87:4 *C 1.805 8.91
*N *87:5 *C 0.935 8.91
*N *87:6 *C 0.935 8.91
*N *87:7 *C 0.935 7.09
*N *87:8 *C 0.935 7.09
*N *87:9 *C 1.425 7.09
*N *87:10 *C 1.425 7.09
*N *87:11 *C 1.425 6.53

*CAP
1 *81:A2 0.0
2 *88:ZN 0.0
3 *87:3 0.008349184
4 *87:4 0.09019927
5 *87:5 0.1077349
6 *87:6 0.07658094
7 *87:7 0.1077349
8 *87:8 0.04064127
9 *87:9 0.04071534
10 *87:10 0.06071001
11 *87:11 0.06332058

*RES
1 *87:3 *88:ZN 22.5
2 *87:4 *87:3 22.5
3 *87:5 *87:6 22.5
4 *87:7 *87:8 22.5
5 *87:9 *87:10 22.5
6 *87:11 *81:A2 22.5
7 *87:11 *87:10 1.331305
8 *87:8 *87:9 1.759583
9 *87:6 *87:4 4.005327
10 *87:7 *87:5 3.602168

*END

*D_NET *89 0.5676687

*CONN
*I *69:A1 I *L 985.6949 *C 1.995 6.53
*I *50:ZN O *L 0.0 *D AND4_X1 *C 1.805 4.29
*N *89:3 *C 1.995 6.53
*N *89:4 *C 1.995 6.25
*N *89:5 *C 1.995 6.25
*N *89:6 *C 1.215 6.25
*N *89:7 *C 1.215 6.25
*N *89:8 *C 1.215 4.43
*N *89:9 *C 1.215 4.43
*N *89:10 *C 1.805 4.43
*N *89:11 *C 1.805 4.43
*N *89:12 *C 1.805 4.29

*CAP
1 *69:A1 0.0
2 *50:ZN 0.0
3 *89:3 0.03666819
4 *89:4 0.06638508
5 *89:5 0.03405761
6 *89:6 0.1252999
7 *89:7 0.06631099
8 *89:8 0.1252999
9 *89:9 0.05116502
10 *89:10 0.05123909
11 *89:11 0.004316188
12 *89:12 0.006926768

*RES
1 *89:3 *69:A1 22.5
2 *89:4 *89:5 22.5
3 *89:6 *89:7 22.5
4 *89:8 *89:9 22.5
5 *89:10 *89:11 22.5
6 *89:12 *50:ZN 22.5
7 *89:11 *89:12 0.1334088
8 *89:5 *89:3 0.6422837
9 *89:9 *89:10 1.869792
10 *89:7 *89:4 3.662926
11 *89:8 *89:6 3.615603

*END

*D_NET *90 0.7080806

*CONN
*I *79:A I *L 1938.113 *C 6.555 2.47
*I *91:ZN O *L 0.0 *D NAND4_X1 *C 10.545 2.19
*N *90:3 *C 10.545 2.19
*N *90:4 *C 10.545 2.19
*N *90:5 *C 6.555 2.19
*N *90:6 *C 6.555 2.19
*N *90:7 *C 6.555 2.47

*CAP
1 *79:A 0.0
2 *91:ZN 0.0
3 *90:3 0.005958909
4 *90:4 0.3131173
5 *90:5 0.3019633
6 *90:6 0.04221523
7 *90:7 0.04482581

*RES
1 *90:3 *91:ZN 22.5
2 *90:4 *90:3 22.5
3 *90:5 *90:6 22.5
4 *90:7 *79:A 22.5
5 *90:6 *90:7 0.443973
6 *90:5 *90:4 15.11553

*END

*D_NET *92 0.1604675

*CONN
*I *88:A1 I *L 1756.551 *C 1.805 9.33
*I *93:ZN O *L 0.0 *D NAND2_X1 *C 1.805 10.31
*N *92:3 *C 1.805 9.33
*N *92:4 *C 1.805 10.31

*CAP
1 *88:A1 0.0
2 *93:ZN 0.0
3 *92:3 0.08023377
4 *92:4 0.08023377

*RES
1 *92:3 *88:A1 22.5
2 *92:4 *93:ZN 22.5
3 *92:3 *92:4 2.917222

*END

*D_NET *94 0.3097181

*CONN
*I *88:A2 I *L 1806.822 *C 1.425 9.33
*I *95:ZN O *L 0.0 *D NAND2_X1 *C 2.565 9.89
*N *94:3 *C 2.565 9.89
*N *94:4 *C 2.565 9.89
*N *94:5 *C 1.425 9.89
*N *94:6 *C 1.425 9.89
*N *94:7 *C 1.425 9.33

*CAP
1 *88:A2 0.0
2 *95:ZN 0.0
3 *94:3 0.009317907
4 *94:4 0.1075199
5 *94:5 0.0956045
6 *94:6 0.04992361
7 *94:7 0.04735216

*RES
1 *94:3 *95:ZN 22.5
2 *94:4 *94:3 22.5
3 *94:5 *94:6 22.5
4 *94:7 *88:A2 22.5
5 *94:7 *94:6 2.186273
6 *94:5 *94:4 4.952786

*END

*D_NET *96 0.2024342

*CONN
*I *88:A3 I *L 1841.567 *C 1.235 9.33
*I *97:ZN O *L 0.0 *D NAND2_X1 *C 0.665 9.61
*N *96:3 *C 1.235 9.33
*N *96:4 *C 1.235 9.61
*N *96:5 *C 1.235 9.61
*N *96:6 *C 0.665 9.61
*N *96:7 *C 0.665 9.61

*CAP
1 *88:A3 0.0
2 *97:ZN 0.0117863
3 *96:3 0.04185688
4 *96:4 0.04887919
5 *96:5 0.0392463
6 *96:6 0.04887919
7 *96:7 0.0117863

*RES
1 *96:3 *88:A3 22.5
2 *96:4 *96:5 22.5
3 *96:6 *96:7 22.5
4 *96:7 *97:ZN 22.5
5 *96:3 *96:5 0.5091326
6 *96:6 *96:4 1.861973

*END

*D_NET *31 0.5478097

*CONN
*I *88:A4 I *L 1855.86 *C 1.055 9.33
*I *98:A2 I *L 1883.517 *C 0.105 10.87
*I *99:A I *L 1938.113 *C 0.095 9.33
*P *31 I *C 0.095 11.29
*N *31:5 *C 0.095 11.29
*N *31:6 *C 1.055 9.33
*N *31:7 *C 1.045 9.89
*N *31:8 *C 1.045 9.89
*N *31:9 *C 0.095 9.89
*N *31:10 *C 0.095 9.89
*N *31:11 *C 0.105 10.87
*N *31:12 *C 0.095 9.33

*CAP
1 *88:A4 0.0
2 *98:A2 0.0
3 *99:A 0.0
4 *31 0.007934894
5 *31:5 0.04199109
6 *31:6 0.06093977
7 *31:7 0.0831327
8 *31:8 0.05832919
9 *31:9 0.0831327
10 *31:10 0.08913351
11 *31:11 0.08317707
12 *31:12 0.04003872

*RES
1 *31 *31:5 22.5
2 *31:6 *88:A4 22.5
3 *31:7 *31:8 22.5
4 *31:9 *31:10 22.5
5 *31:11 *98:A2 22.5
6 *31:12 *99:A 22.5
7 *31:12 *31:10 1.195814
8 *31:10 *31:11 2.232187
9 *31:11 *31:5 0.7982683
10 *31:6 *31:8 1.620854
11 *31:9 *31:7 4.533351

*END

*D_NET *100 0.2202627

*CONN
*I *83:A1 I *L 1756.551 *C 3.297 12.112
*I *101:ZN O *L 0.0 *D NAND2_X1 *C 4.465 12.41
*N *100:3 *C 3.325 12.27
*N *100:4 *C 3.325 12.27
*N *100:5 *C 3.325 12.41
*N *100:6 *C 3.325 12.41
*N *100:7 *C 4.465 12.41
*N *100:8 *C 4.465 12.41

*CAP
1 *83:A1 0.008165363
2 *101:ZN 0.01095598
3 *100:3 0.01905444
4 *100:4 0.005580871
5 *100:5 0.0745531
6 *100:6 0.01644386
7 *100:7 0.0745531
8 *100:8 0.01095598

*RES