*SPEF "1481-1998"
*DESIGN "c5315"
*DATE "Wed Jul  2 15:17:15 2014"
*VENDOR "Synopsys, Inc."
*PROGRAM "icc_shell"
*VERSION "G-2012.06-ICC-SP5"
*DESIGN_FLOW "PIN_CAP NONE"
*DIVIDER /
*DELIMITER :
*BUS_DELIMITER [ ]
*T_UNIT 1 NS
*C_UNIT 1 FF
*R_UNIT 1 OHM
*L_UNIT 1 HENRY

*NAME_MAP
*1 N17
*2 N14
*3 N11
*4 N4
*5 N1
*6 VDD
*7 VSS
*8 N34
*9 N31
*10 N27
*11 N26
*12 N25
*13 N24
*14 N23
*15 N20
*16 N54
*17 N53
*18 N52
*19 N49
*20 N46
*21 N43
*22 N40
*23 N37
*24 N80
*25 N79
*26 N76
*27 N73
*28 N70
*29 N67
*30 N64
*31 N61
*32 N94
*33 N91
*34 N88
*35 N87
*36 N86
*37 N83
*38 N82
*39 N81
*40 N114
*41 N113
*42 N112
*43 N109
*44 N106
*45 N103
*46 N100
*47 N97
*48 N122
*49 N121
*50 N120
*51 N119
*52 N118
*53 N117
*54 N116
*55 N115
*56 N132
*57 N131
*58 N130
*59 N129
*60 N128
*61 N127
*62 N126
*63 N123
*64 N149
*65 N146
*66 N145
*67 N141
*68 N140
*69 N137
*70 N136
*71 N135
*72 N173
*73 N170
*74 N167
*75 N164
*76 N161
*77 N158
*78 N155
*79 N152
*80 N197
*81 N194
*82 N191
*83 N188
*84 N185
*85 N182
*86 N179
*87 N176
*88 N225
*89 N218
*90 N217
*91 N210
*92 N209
*93 N206
*94 N203
*95 N200
*96 N251
*97 N248
*98 N245
*99 N242
*100 N241
*101 N234
*102 N233
*103 N226
*104 N281
*105 N280
*106 N273
*107 N272
*108 N265
*109 N264
*110 N257
*111 N254
*112 N308
*113 N307
*114 N302
*115 N299
*116 N293
*117 N292
*118 N289
*119 N288
*120 N338
*121 N335
*122 N332
*123 N331
*124 N324
*125 N323
*126 N316
*127 N315
*128 N372
*129 N369
*130 N366
*131 N361
*132 N358
*133 N351
*134 N348
*135 N341
*136 N435
*137 N422
*138 N411
*139 N400
*140 N389
*141 N386
*142 N374
*143 N373
*144 N523
*145 N514
*146 N503
*147 N490
*148 N479
*149 N468
*150 N457
*151 N446
*152 N566
*153 N562
*154 N559
*155 N556
*156 N552
*157 N549
*158 N545
*159 N534
*160 N592
*161 N591
*162 N588
*163 N583
*164 N580
*165 N577
*166 N574
*167 N571
*168 N610
*169 N607
*170 N603
*171 N599
*172 N598
*173 N597
*174 N596
*175 N595
*176 N1066
*177 N816
*178 N709
*179 N631
*180 N625
*181 N619
*182 N616
*183 N613
*184 N1144
*185 N1143
*186 N1142
*187 N1141
*188 N1140
*189 N1139
*190 N1138
*191 N1137
*192 N2054
*193 N1972
*194 N1155
*195 N1154
*196 N1153
*197 N1152
*198 N1147
*199 N1145
*200 N2584
*201 N2527
*202 N2387
*203 N2309
*204 N2142
*205 N2139
*206 N2061
*207 N2060
*208 N3613
*209 N3604
*210 N3360
*211 N3359
*212 N3358
*213 N3357
*214 N2623
*215 N2590
*216 N4740
*217 N4739
*218 N4738
*219 N4737
*220 N4279
*221 N4278
*222 N4275
*223 N4272
*224 N6877
*225 N6716
*226 N6648
*227 N6646
*228 N6643
*229 N6641
*230 N5388
*231 N5240
*232 N7432
*233 N7365
*234 N7363
*235 N7015
*236 N6927
*237 N6926
*238 N6925
*239 N6924
*240 N7472
*241 N7471
*242 N7470
*243 N7469
*244 N7467
*245 N7466
*246 N7465
*247 N7449
*248 N7515
*249 N7511
*250 N7506
*251 N7504
*252 N7503
*253 N7476
*254 N7474
*255 N7473
*256 N7600
*257 N7522
*258 N7521
*259 N7520
*260 N7519
*261 N7518
*262 N7517
*263 N7516
*264 N7626
*265 N7607
*266 N7606
*267 N7605
*268 N7604
*269 N7603
*270 N7602
*271 N7601
*272 N7705
*273 N7704
*274 N7703
*275 N7702
*276 N7701
*277 N7700
*278 N7699
*279 N7698
*280 N7740
*281 N7739
*282 N7738
*283 N7737
*284 N7736
*285 N7735
*286 N7707
*287 N7706
*288 N7759
*289 N7758
*290 N7757
*291 N7756
*292 N7755
*293 N7754
*294 N7742
*295 N7741
*296 N8128
*297 N8127
*298 N8124
*299 N8123
*300 N8076
*301 N8075
*302 N7761
*303 N7760
*304 N8126
*305 NOT1_2307
*306 AND2_2305
*307 N8125
*308 NOT1_2306
*309 AND2_2304
*310 N8122
*311 OR4_2301
*312 N2750
*313 AND2_2024
*314 AND2_2023
*315 AND2_2022
*316 AND2_1980
*317 BUFF1_289
*318 N8121
*319 OR4_2300
*320 N2675
*321 AND2_2020
*322 AND2_2019
*323 AND2_2018
*324 AND2_1975
*325 BUFF1_268
*326 N8115
*327 OR4_2303
*328 AND3_2294
*329 N8116
*330 AND3_2295
*331 N3658
*332 AND3_617
*333 N2622
*334 AND3_240
*335 N8113
*336 OR4_2302
*337 AND3_2292
*338 N8114
*339 AND3_2293
*340 N3650
*341 AND3_609
*342 N2614
*343 AND3_232
*344 N8119
*345 AND3_2298
*346 N8120
*347 AND3_2299
*348 N3663
*349 AND3_622
*350 N2778
*351 AND3_292
*352 N8117
*353 AND3_2296
*354 N8118
*355 AND3_2297
*356 N3662
*357 AND3_621
*358 N2703
*359 AND3_271
*360 N8093
*361 OR2_2288
*362 N1247
*363 AND3_220
*364 AND3_219
*365 AND3_218
*366 BUFF1_41
*367 AND3_1929
*368 AND3_1927
*369 AND3_1925
*370 AND3_1881
*371 NOT1_290
*372 AND3_221
*373 N2767
*374 AND3_1744
*375 NOT1_291
*376 AND3_1928
*377 AND3_1926
*378 AND3_1882
*379 N8096
*380 OR2_2289
*381 N2756
*382 AND3_592
*383 AND3_591
*384 AND3_594
*385 AND3_593
*386 N1185
*387 AND3_211
*388 AND3_210
*389 AND3_209
*390 BUFF1_33
*391 AND3_1921
*392 AND3_1919
*393 AND3_1917
*394 AND3_1879
*395 NOT1_269
*396 AND3_212
*397 N2692
*398 AND3_1743
*399 NOT1_270
*400 AND3_1920
*401 AND3_1918
*402 AND3_1880
*403 N2681
*404 AND3_581
*405 AND3_580
*406 AND3_583
*407 AND3_582
*408 N8099
*409 OR2_2290
*410 N1351
*411 AND3_239
*412 AND3_238
*413 AND3_237
*414 BUFF1_50
*415 AND3_1944
*416 AND3_1943
*417 AND3_1941
*418 AND3_1887
*419 NOT1_295
*420 AND3_244
*421 N2812
*422 AND3_1885
*423 AND3_1747
*424 NOT1_296
*425 AND3_1942
*426 AND3_1940
*427 N8102
*428 OR2_2291
*429 N2801
*430 AND3_615
*431 AND3_614
*432 AND3_619
*433 AND3_616
*434 N1327
*435 AND3_230
*436 AND3_229
*437 AND3_223
*438 BUFF1_48
*439 AND3_1937
*440 AND3_1936
*441 AND3_1934
*442 AND3_1883
*443 NOT1_293
*444 AND3_231
*445 N2790
*446 AND3_1745
*447 NOT1_294
*448 AND3_1935
*449 AND3_1933
*450 AND3_1884
*451 N2779
*452 AND3_606
*453 AND3_600
*454 AND3_608
*455 AND3_607
*456 N8092
*457 AND2_2287
*458 N3074
*459 AND2_465
*460 N8091
*461 AND2_2286
*462 N3073
*463 AND2_464
*464 N8090
*465 AND2_2285
*466 N3072
*467 AND2_463
*468 N8089
*469 AND2_2284
*470 N3071
*471 AND2_462
*472 N8082
*473 OR2_2283
*474 N3063
*475 NOT1_460
*476 N8079
*477 OR2_2282
*478 N7479
*479 AND2_1957
*480 N8078
*481 AND2_2281
*482 N7530
*483 AND2_1997
*484 N8077
*485 AND2_2280
*486 N8074
*487 NOT1_2277
*488 N1727
*489 NOT1_461
*490 BUFF1_128
*491 N8073
*492 NOT1_2276
*493 N7636
*494 OR4_2279
*495 AND3_2029
*496 N8072
*497 AND3_2275
*498 N3661
*499 AND3_620
*500 N2627
*501 AND2_245
*502 N7526
*503 OR4_2278
*504 AND3_1993
*505 N8071
*506 AND3_2274
*507 N3659
*508 AND3_618
*509 N2625
*510 AND2_243
*511 N8064
*512 NAND2_2273
*513 N8061
*514 NAND2_2272
*515 N1761
*516 AND3_1836
*517 AND3_1835
*518 AND3_1834
*519 AND3_1803
*520 NOT1_468
*521 BUFF1_133
*522 N3108
*523 AND3_1007
*524 AND3_1006
*525 NOT1_469
*526 AND3_1009
*527 AND3_1008
*528 N1777
*529 AND3_1839
*530 AND3_1838
*531 AND3_1804
*532 AND3_1589
*533 NOT1_470
*534 BUFF1_135
*535 N3130
*536 AND3_841
*537 AND3_800
*538 NOT1_471
*539 AND3_1011
*540 AND3_1010
*541 N8057
*542 NAND2_2268
*543 N8060
*544 NAND2_2271
*545 N8055
*546 NAND2_2266
*547 N8059
*548 NAND2_2270
*549 N8017
*550 NOT1_2255
*551 OR4_2242
*552 N8058
*553 NOT1_2269
*554 N8013
*555 NOT1_2252
*556 OR4_2241
*557 N8056
*558 NOT1_2267
*559 N8048
*560 OR2_2265
*561 N8036
*562 N8045
*563 OR2_2264
*564 N8033
*565 N8044
*566 AND2_2263
*567 N8035
*568 AND2_2254
*569 N8043
*570 AND2_2262
*571 N8041
*572 AND2_2260
*573 N8042
*574 NOT1_2261
*575 N1219
*576 AND3_2234
*577 AND3_2233
*578 NOT1_38
*579 N8040
*580 NOT1_2259
*581 N1157
*582 AND3_2228
*583 AND3_2227
*584 NOT1_30
*585 N8039
*586 NAND2_2258
*587 AND3_2230
*588 AND3_2229
*589 N8037
*590 NAND2_2256
*591 N8038
*592 NAND2_2257
*593 N8034
*594 NAND2_2253
*595 N8027
*596 NAND2_2249
*597 N8032
*598 NAND2_2251
*599 N8023
*600 NAND2_2246
*601 N8031
*602 NAND2_2250
*603 N8021
*604 NAND2_2244
*605 AND3_2236
*606 AND3_2235
*607 N8025
*608 NAND2_2247
*609 N6054
*610 NOT1_1500
*611 BUFF1_1314
*612 N8026
*613 NOT1_2248
*614 N6310
*615 NOT1_1569
*616 BUFF1_1460
*617 N8022
*618 NOT1_2245
*619 N6307
*620 NOT1_1568
*621 BUFF1_1459
*622 N8020
*623 NOT1_2243
*624 N8004
*625 NAND2_2239
*626 N6449
*627 N8009
*628 NAND2_2240
*629 N7993
*630 NAND2_2232
*631 N8001
*632 NAND2_2238
*633 N6683
*634 N7998
*635 NAND2_2237
*636 N6682
*637 N7994
*638 N7995
*639 N7996
*640 N7997
*641 N7988
*642 N7989
*643 N7990
*644 N7991
*645 N6051
*646 NOT1_1499
*647 BUFF1_1313
*648 N7992
*649 NOT1_2231
*650 N7987
*651 NAND2_2226
*652 N7974
*653 NAND2_2223
*654 N7985
*655 NAND2_2225
*656 N7969
*657 NAND2_2220
*658 N7984
*659 NAND2_2224
*660 N7967
*661 NAND2_2218
*662 N7960
*663 NAND2_2215
*664 N7182
*665 NOT1_1829
*666 N7963
*667 NAND2_2216
*668 N7065
*669 AND2_1770
*670 N6441
*671 NOT1_1665
*672 AND2_1624
*673 OR5_1497
*674 N6857
*675 N7970
*676 NAND2_2221
*677 N6448
*678 N7954
*679 NAND2_2213
*680 N7177
*681 NOT1_1824
*682 N7957
*683 NAND2_2214
*684 N7041
*685 AND2_1759
*686 N6415
*687 NOT1_1646
*688 AND2_1621
*689 OR5_1492
*690 N6831
*691 N6370
*692 NOT1_1616
*693 BUFF1_1479
*694 N7973
*695 NOT1_2222
*696 N6322
*697 NOT1_1605
*698 BUFF1_1464
*699 N7968
*700 NOT1_2219
*701 N6304
*702 NOT1_1604
*703 BUFF1_1458
*704 N7966
*705 NOT1_2217
*706 N7940
*707 NAND2_2207
*708 N6785
*709 N7951
*710 NAND2_2212
*711 N7939
*712 NAND2_2206
*713 N7935
*714 NAND2_2204
*715 N6755
*716 N7932
*717 NAND2_2203
*718 N6754
*719 N7946
*720 NAND2_2211
*721 N7931
*722 NAND2_2202
*723 N7945
*724 NAND2_2210
*725 N7929
*726 NAND2_2200
*727 N7944
*728 NAND2_2209
*729 N7927
*730 NAND2_2198
*731 N7943
*732 NAND2_2208
*733 N7925
*734 NAND2_2196
*735 N6359
*736 NOT1_1615
*737 BUFF1_1476
*738 N7938
*739 NOT1_2205
*740 N5211
*741 NOT1_1275
*742 BUFF1_1157
*743 N7930
*744 NOT1_2201
*745 N5202
*746 NOT1_1274
*747 BUFF1_1154
*748 N7928
*749 NOT1_2199
*750 N6292
*751 NOT1_1567
*752 BUFF1_1454
*753 N7926
*754 NOT1_2197
*755 N6280
*756 NOT1_1566
*757 BUFF1_1450
*758 N7924
*759 NOT1_2195
*760 N7923
*761 NAND2_2194
*762 N7910
*763 NAND2_2191
*764 N7906
*765 NAND2_2189
*766 N6784
*767 N7918
*768 NAND2_2193
*769 N7899
*770 NAND2_2186
*771 N7917
*772 NAND2_2192
*773 N7897
*774 NAND2_2184
*775 N7903
*776 NAND2_2188
*777 N5691
*778 N7900
*779 NAND2_2187
*780 N5690
*781 N7893
*782 NAND2_2182
*783 N6681
*784 N7890
*785 NAND2_2181
*786 N6680
*787 N6367
*788 NOT1_1618
*789 BUFF1_1478
*790 N7909
*791 NOT1_2190
*792 N6319
*793 NOT1_1608
*794 BUFF1_1463
*795 N7898
*796 NOT1_2185
*797 N6301
*798 NOT1_1603
*799 BUFF1_1457
*800 N7896
*801 NOT1_2183
*802 N7876
*803 NAND2_2175
*804 N6791
*805 N7887
*806 NAND2_2180
*807 N7875
*808 NAND2_2174
*809 N7886
*810 NAND2_2179
*811 N7873
*812 NAND2_2172
*813 N7885
*814 NAND2_2178
*815 N7871
*816 NAND2_2170
*817 N7867
*818 NAND2_2168
*819 N6762
*820 N7864
*821 NAND2_2167
*822 N6753
*823 N7880
*824 NAND2_2177
*825 N7863
*826 NAND2_2166
*827 N7879
*828 NAND2_2176
*829 N7861
*830 NAND2_2164
*831 N6356
*832 NOT1_1614
*833 BUFF1_1475
*834 N7874
*835 NOT1_2173
*836 N5208
*837 NOT1_1287
*838 BUFF1_1156
*839 N7872
*840 NOT1_2171
*841 N5199
*842 NOT1_1285
*843 BUFF1_1153
*844 N7870
*845 NOT1_2169
*846 N6289
*847 NOT1_1600
*848 BUFF1_1453
*849 N7862
*850 NOT1_2165
*851 N6277
*852 NOT1_1597
*853 BUFF1_1449
*854 N7860
*855 NOT1_2163
*856 N7859
*857 NAND2_2162
*858 N7846
*859 NAND2_2159
*860 N7842
*861 NAND2_2157
*862 N6783
*863 N7839
*864 NAND2_2156
*865 N5732
*866 N7836
*867 NAND2_2155
*868 N5730
*869 N7852
*870 NAND2_2161
*871 N7835
*872 NAND2_2154
*873 N7851
*874 NAND2_2160
*875 N7833
*876 NAND2_2152
*877 N7829
*878 NAND2_2150
*879 N6746
*880 N7826
*881 NAND2_2149
*882 N6741
*883 N6364
*884 NOT1_1617
*885 BUFF1_1477
*886 N7845
*887 NOT1_2158
*888 N6316
*889 NOT1_1607
*890 BUFF1_1462
*891 N7834
*892 NOT1_2153
*893 N6298
*894 NOT1_1602
*895 BUFF1_1456
*896 N7832
*897 NOT1_2151
*898 N7812
*899 NAND2_2143
*900 N6790
*901 N7823
*902 NAND2_2148
*903 N7811
*904 NAND2_2142
*905 N7822
*906 NAND2_2147
*907 N7809
*908 NAND2_2140
*909 N7821
*910 NAND2_2146
*911 N7807
*912 NAND2_2138
*913 N7803
*914 NAND2_2136
*915 N6761
*916 N7800
*917 NAND2_2135
*918 N6752
*919 N7816
*920 NAND2_2145
*921 N7799
*922 NAND2_2134
*923 N7815
*924 NAND2_2144
*925 N7797
*926 NAND2_2132
*927 N6353
*928 NOT1_1613
*929 BUFF1_1474
*930 N7810
*931 NOT1_2141
*932 N6350
*933 NOT1_1612
*934 BUFF1_1473
*935 N7808
*936 NOT1_2139
*937 N6344
*938 NOT1_1610
*939 BUFF1_1471
*940 N7806
*941 NOT1_2137
*942 N6286
*943 NOT1_1599
*944 BUFF1_1452
*945 N7798
*946 NOT1_2133
*947 N6274
*948 NOT1_1596
*949 BUFF1_1448
*950 N7796
*951 NOT1_2131
*952 N7795
*953 NAND2_2130
*954 N7782
*955 NAND2_2127
*956 N7778
*957 NAND2_2125
*958 N6782
*959 N7775
*960 NAND2_2124
*961 N6777
*962 N7772
*963 NAND2_2123
*964 N6773
*965 N7788
*966 NAND2_2129
*967 N7771
*968 NAND2_2122
*969 N7787
*970 NAND2_2128
*971 N7769
*972 NAND2_2120
*973 N7765
*974 NAND2_2118
*975 N6745
*976 N7762
*977 NAND2_2117
*978 N6740
*979 N5220
*980 NOT1_1290
*981 BUFF1_1160
*982 N7781
*983 NOT1_2126
*984 N6313
*985 NOT1_1606
*986 BUFF1_1461
*987 N7770
*988 NOT1_2121
*989 N6295
*990 NOT1_1601
*991 BUFF1_1455
*992 N7768
*993 NOT1_2119
*994 N7724
*995 NAND2_2087
*996 N5735
*997 N7751
*998 NAND2_2108
*999 N7723
*1000 NAND2_2086
*1001 N7750
*1002 NAND2_2107
*1003 N7721
*1004 NAND2_2084
*1005 N7749
*1006 NAND2_2106
*1007 N7719
*1008 NAND2_2082
*1009 N7715
*1010 NAND2_2080
*1011 N6760
*1012 N7712
*1013 NAND2_2079
*1014 N6751
*1015 N7744
*1016 NAND2_2105
*1017 N7711
*1018 NAND2_2078
*1019 N7743
*1020 NAND2_2104
*1021 N7709
*1022 NAND2_2076
*1023 N7734
*1024 AND2_2116
*1025 OR4_2095
*1026 N2722
*1027 AND2_2115
*1028 AND2_2114
*1029 AND2_2113
*1030 AND2_2021
*1031 BUFF1_286
*1032 N7733
*1033 OR4_2094
*1034 N7732
*1035 OR4_2093
*1036 N7731
*1037 OR4_2092
*1038 N7730
*1039 AND2_2112
*1040 OR4_2091
*1041 N2647
*1042 AND2_2111
*1043 AND2_2110
*1044 AND2_2109
*1045 AND2_2017
*1046 BUFF1_265
*1047 N7729
*1048 OR4_2090
*1049 N7728
*1050 OR4_2089
*1051 N7727
*1052 OR4_2088
*1053 N5214
*1054 NOT1_1288
*1055 BUFF1_1158
*1056 N7722
*1057 NOT1_2085
*1058 N6347
*1059 NOT1_1611
*1060 BUFF1_1472
*1061 N7720
*1062 NOT1_2083
*1063 N6341
*1064 NOT1_1609
*1065 BUFF1_1470
*1066 N7718
*1067 NOT1_2081
*1068 N6283
*1069 NOT1_1598
*1070 BUFF1_1451
*1071 N7710
*1072 NOT1_2077
*1073 N6271
*1074 NOT1_1595
*1075 BUFF1_1447
*1076 N7708
*1077 NOT1_2075
*1078 N7696
*1079 OR4_2103
*1080 AND3_2063
*1081 N7697
*1082 AND3_2064
*1083 N3653
*1084 AND3_612
*1085 N2617
*1086 AND3_235
*1087 N7694
*1088 OR4_2102
*1089 AND3_2061
*1090 N7695
*1091 AND3_2062
*1092 N3652
*1093 AND3_611
*1094 N2616
*1095 AND3_234
*1096 N7692
*1097 OR4_2101
*1098 AND3_2059
*1099 N7693
*1100 AND3_2060
*1101 N3651
*1102 AND3_610
*1103 N2615
*1104 AND3_233
*1105 N7690
*1106 OR4_2100
*1107 AND3_2057
*1108 N7691
*1109 AND3_2058
*1110 N3645
*1111 AND3_604
*1112 N2609
*1113 AND3_227
*1114 N7688
*1115 OR4_2099
*1116 AND3_2055
*1117 N7689
*1118 AND3_2056
*1119 N3644
*1120 AND3_603
*1121 N2608
*1122 AND3_226
*1123 N7686
*1124 OR4_2098
*1125 AND3_2053
*1126 N7687
*1127 AND3_2054
*1128 N3643
*1129 AND3_602
*1130 N2607
*1131 AND3_225
*1132 N7684
*1133 OR4_2097
*1134 AND3_2051
*1135 N7685
*1136 AND3_2052
*1137 N3642
*1138 AND3_601
*1139 N2606
*1140 AND3_224
*1141 N7682
*1142 OR4_2096
*1143 AND3_2049
*1144 N7683
*1145 AND3_2050
*1146 N3638
*1147 AND3_597
*1148 N2604
*1149 AND3_222
*1150 N7680
*1151 AND3_2047
*1152 N7681
*1153 AND3_2048
*1154 N3631
*1155 AND3_590
*1156 N2599
*1157 AND3_217
*1158 N7678
*1159 AND3_2045
*1160 N7679
*1161 AND3_2046
*1162 N3630
*1163 AND3_589
*1164 N2598
*1165 AND3_216
*1166 N7676
*1167 AND3_2043
*1168 N7677
*1169 AND3_2044
*1170 N3629
*1171 AND3_588
*1172 N2597
*1173 AND3_215
*1174 N7674
*1175 AND3_2041
*1176 N7675
*1177 AND3_2042
*1178 N3628
*1179 AND3_587
*1180 N2596
*1181 AND3_214
*1182 N7672
*1183 AND3_2039
*1184 N7673
*1185 AND3_2040
*1186 N3620
*1187 AND3_579
*1188 N2589
*1189 AND3_207
*1190 N7670
*1191 AND3_2037
*1192 N7671
*1193 AND3_2038
*1194 N3619
*1195 AND3_578
*1196 N2588
*1197 AND3_206
*1198 N7668
*1199 AND3_2035
*1200 N7669
*1201 AND3_2036
*1202 N3618
*1203 AND3_577
*1204 N2587
*1205 AND3_205
*1206 N7666
*1207 AND3_2033
*1208 N7667
*1209 AND3_2034
*1210 N3617
*1211 AND3_576
*1212 N2586
*1213 AND3_204
*1214 N7665
*1215 NAND2_2032
*1216 N7599
*1217 NAND2_2016
*1218 N7595
*1219 NAND2_2014
*1220 N5733
*1221 N7592
*1222 NAND2_2013
*1223 N6776
*1224 N7589
*1225 NAND2_2012
*1226 N6772
*1227 N7658
*1228 NAND2_2031
*1229 N7588
*1230 NAND2_2011
*1231 N7657
*1232 NAND2_2030
*1233 N7586
*1234 NAND2_2009
*1235 N7582
*1236 NAND2_2007
*1237 N6744
*1238 N7579
*1239 NAND2_2006
*1240 N6739
*1241 N7531
*1242 NOT1_2074
*1243 OR3_1998
*1244 N7537
*1245 NOT1_2073
*1246 OR3_1999
*1247 N7543
*1248 NOT1_2072
*1249 OR3_2000
*1250 N7549
*1251 NOT1_2071
*1252 OR3_2001
*1253 N1156
*1254 AND3_2070
*1255 AND4_29
*1256 N7631
*1257 AND5_2028
*1258 NOT1_25
*1259 N7555
*1260 NOT1_2069
*1261 OR3_2002
*1262 N7561
*1263 NOT1_2068
*1264 OR3_2003
*1265 N7567
*1266 NOT1_2067
*1267 OR3_2004
*1268 N7573
*1269 NOT1_2066
*1270 OR3_2005
*1271 N7624
*1272 OR2_2065
*1273 AND2_2025
*1274 N7625
*1275 AND2_2026
*1276 N1731
*1277 BUFF1_129
*1278 AND3_1939
*1279 NOT1_466
*1280 AND3_236
*1281 N3086
*1282 AND3_1938
*1283 NOT1_467
*1284 N3075
*1285 AND3_613
*1286 N1697
*1287 BUFF1_125
*1288 AND3_1932
*1289 NOT1_458
*1290 AND3_228
*1291 N3052
*1292 AND3_1931
*1293 NOT1_459
*1294 N3041
*1295 AND3_605
*1296 N1223
*1297 AND3_213
*1298 BUFF1_39
*1299 AND3_1923
*1300 NOT1_287
*1301 N2739
*1302 AND3_1922
*1303 NOT1_288
*1304 N2728
*1305 AND3_586
*1306 N1161
*1307 AND3_203
*1308 BUFF1_31
*1309 AND3_1915
*1310 NOT1_266
*1311 N2664
*1312 AND3_1914
*1313 NOT1_267
*1314 N2653
*1315 AND3_575
*1316 N6622
*1317 NOT1_1701
*1318 NOR4_1538
*1319 N7598
*1320 NOT1_2015
*1321 N6556
*1322 NOT1_1690
*1323 NOR4_1525
*1324 N7587
*1325 NOT1_2010
*1326 N6539
*1327 NOT1_1686
*1328 OR5_1523
*1329 N7585
*1330 NOT1_2008
*1331 N7529
*1332 NOT1_1996
*1333 N3097
*1334 AND3_717
*1335 AND3_720
*1336 AND3_719
*1337 AND3_718
*1338 extra24
*1339 AND5_2028_A
*1340 N6930
*1341 NOT1_1708
*1342 NOT1_27
*1343 AND2_13
*1344 N7527
*1345 NOT1_1994
*1346 N7528
*1347 NOT1_1995
*1348 N6805
*1349 NOT1_1625
*1350 N1149
*1351 AND2_2027
*1352 NOT1_22
*1353 N7525
*1354 OR4_1992
*1355 N7489
*1356 NAND2_1966
*1357 N7250
*1358 AND3_1965
*1359 AND3_1945
*1360 NOT1_1913
*1361 NOT1_1912
*1362 OR2_1861
*1363 N6979
*1364 AND3_1792
*1365 OR2_1736
*1366 N7514
*1367 OR4_1983
*1368 N7513
*1369 OR4_1982
*1370 N7512
*1371 OR4_1981
*1372 N7510
*1373 OR4_1979
*1374 N7509
*1375 OR4_1978
*1376 N7508
*1377 OR4_1977
*1378 N7507
*1379 OR4_1976
*1380 N7505
*1381 OR4_1974
*1382 N7421
*1383 NAND2_1904
*1384 N6919
*1385 N7500
*1386 NAND2_1971
*1387 N7420
*1388 NAND2_1903
*1389 N7499
*1390 NAND2_1970
*1391 N7418
*1392 NAND2_1901
*1393 N7498
*1394 NAND2_1969
*1395 N7416
*1396 NAND2_1899
*1397 N7412
*1398 NAND2_1897
*1399 N6900
*1400 N7409
*1401 NAND2_1896
*1402 N6894
*1403 N7493
*1404 NAND2_1968
*1405 N7408
*1406 NAND2_1895
*1407 N7492
*1408 NAND2_1967
*1409 N7406
*1410 NAND2_1893
*1411 N4987
*1412 AND3_1031
*1413 N7488
*1414 N3809
*1415 AND3_737
*1416 N4547
*1417 AND3_923
*1418 N7487
*1419 AND3_1964
*1420 N3808
*1421 AND3_736
*1422 N4986
*1423 AND3_1030
*1424 N7486
*1425 AND3_1963
*1426 N3807
*1427 AND3_735
*1428 N4985
*1429 AND3_1029
*1430 N7485
*1431 AND3_1962
*1432 N3806
*1433 AND3_734
*1434 N5165
*1435 AND3_1139
*1436 N7484
*1437 AND3_1961
*1438 N3804
*1439 AND3_732
*1440 N4983
*1441 AND3_1027
*1442 N7483
*1443 AND3_1960
*1444 N3803
*1445 AND3_731
*1446 N4982
*1447 AND3_1026
*1448 N7482
*1449 AND3_1959
*1450 N3802
*1451 AND3_730
*1452 N4981
*1453 AND3_1025
*1454 N7481
*1455 AND3_1958
*1456 N3801
*1457 AND3_729
*1458 N7402
*1459 NAND2_1891
*1460 N3068
*1461 N7397
*1462 BUFF1_1956
*1463 NAND2_1890
*1464 N7394
*1465 BUFF1_1955
*1466 NAND2_1889
*1467 N7468
*1468 NOT1_1949
*1469 N3119
*1470 AND3_721
*1471 AND3_724
*1472 AND3_723
*1473 AND3_722
*1474 N4741
*1475 AND3_995
*1476 N7114
*1477 N2624
*1478 AND3_242
*1479 N7464
*1480 N7357
*1481 OR4_1991
*1482 N7463
*1483 N3657
*1484 N2621
*1485 N7461
*1486 OR4_1990
*1487 N7462
*1488 N3656
*1489 N2620
*1490 N7459
*1491 OR4_1989
*1492 N7460
*1493 N3655
*1494 N2619
*1495 N7457
*1496 OR4_1988
*1497 N7458
*1498 N3654
*1499 N2618
*1500 N7349
*1501 OR4_1987
*1502 N7456
*1503 N3649
*1504 N2613
*1505 N7454
*1506 OR4_1986
*1507 N7455
*1508 N3648
*1509 N2612
*1510 N7452
*1511 OR4_1985
*1512 N7453
*1513 N3647
*1514 N2611
*1515 N7450
*1516 OR4_1984
*1517 N7451
*1518 N3646
*1519 N2610
*1520 N7447
*1521 N7448
*1522 N3635
*1523 N2603
*1524 N7445
*1525 N7446
*1526 N3634
*1527 N2602
*1528 N7341
*1529 N7444
*1530 N3633
*1531 N2601
*1532 N7443
*1533 OR4_1924
*1534 N7441
*1535 N7442
*1536 N3627
*1537 N2595
*1538 N7439
*1539 N7440
*1540 N3624
*1541 N2594
*1542 N7437
*1543 N7438
*1544 N3623
*1545 N2593
*1546 N7339
*1547 N7436
*1548 N3622
*1549 N2592
*1550 N7435
*1551 OR4_1916
*1552 N7433
*1553 N7434
*1554 N3616
*1555 N2585
*1556 extra23
*1557 AND9_1973
*1558 AND9_1973_B
*1559 N7430
*1560 NOT1_1911
*1561 N7431
*1562 extra22
*1563 AND9_1973_A
*1564 N7172
*1565 NOT1_1819
*1566 N7428
*1567 NOT1_1909
*1568 N7429
*1569 NOT1_1910
*1570 N6640
*1571 NOT1_1545
*1572 N7110
*1573 NOT1_1791
*1574 N7170
*1575 NOT1_1817
*1576 N7171
*1577 NOT1_1818
*1578 extra21
*1579 AND9_1972
*1580 AND9_1972_B
*1581 N7426
*1582 NOT1_1907
*1583 N7427
*1584 NOT1_1908
*1585 extra20
*1586 AND9_1972_A
*1587 N7169
*1588 NOT1_1816
*1589 N7424
*1590 NOT1_1905
*1591 N7425
*1592 NOT1_1906
*1593 N7105
*1594 NOT1_1790
*1595 N7166
*1596 NOT1_1813
*1597 N7167
*1598 NOT1_1814
*1599 N7168
*1600 NOT1_1815
*1601 N6609
*1602 NOT1_1697
*1603 OR5_1536
*1604 N7419
*1605 NOT1_1902
*1606 N6599
*1607 NOT1_1694
*1608 NOR3_1534
*1609 N7417
*1610 NOT1_1900
*1611 N6592
*1612 NOT1_1692
*1613 OR4_1533
*1614 N7415
*1615 NOT1_1898
*1616 N6526
*1617 NOT1_1682
*1618 NOR3_1521
*1619 N7407
*1620 NOT1_1894
*1621 N6516
*1622 NOT1_1680
*1623 OR4_1520
*1624 N7405
*1625 NOT1_1892
*1626 N1807
*1627 AND3_1845
*1628 NOT1_480
*1629 BUFF1_139
*1630 N3180
*1631 AND3_1028
*1632 NOT1_481
*1633 N7257
*1634 OR2_1862
*1635 N7260
*1636 OR2_1863
*1637 N7263
*1638 OR2_1864
*1639 N7236
*1640 OR2_1857
*1641 N1793
*1642 AND3_1844
*1643 NOT1_478
*1644 BUFF1_137
*1645 N3158
*1646 AND3_1024
*1647 NOT1_479
*1648 N7239
*1649 OR2_1858
*1650 N7242
*1651 OR2_1859
*1652 N7245
*1653 OR2_1860
*1654 N7301
*1655 NAND2_1873
*1656 N7270
*1657 NOT1_1954
*1658 OR3_1867
*1659 N7276
*1660 NOT1_1953
*1661 OR3_1868
*1662 N7282
*1663 NOT1_1952
*1664 OR3_1869
*1665 N7304
*1666 NOT1_1951
*1667 OR3_1874
*1668 N7016
*1669 OR4_1950
*1670 N7364
*1671 N3660
*1672 N2626
*1673 N7288
*1674 NOT1_1948
*1675 OR3_1870
*1676 N7294
*1677 NOT1_1947
*1678 OR3_1871
*1679 N7310
*1680 NOT1_1946
*1681 OR3_1875
*1682 NOT1_132
*1683 NOT1_131
*1684 N7013
*1685 OR4_1930
*1686 N7342
*1687 N3641
*1688 N2605
*1689 N7012
*1690 N7340
*1691 N3632
*1692 N2600
*1693 N7011
*1694 N7338
*1695 N3621
*1696 N2591
*1697 N7328
*1698 NAND2_1878
*1699 N7229
*1700 NAND2_1856
*1701 N7225
*1702 NAND2_1854
*1703 N6913
*1704 N7222
*1705 NAND2_1853
*1706 N6908
*1707 N7219
*1708 NAND2_1852
*1709 N6904
*1710 N7321
*1711 NAND2_1877
*1712 N7218
*1713 NAND2_1851
*1714 N7320
*1715 NAND2_1876
*1716 N7216
*1717 NAND2_1849
*1718 N7212
*1719 NAND2_1847
*1720 N6888
*1721 N7209
*1722 NAND2_1846
*1723 N6884
*1724 N7204
*1725 NAND2_1841
*1726 N7300
*1727 NAND2_1872
*1728 N7269
*1729 NAND2_1866
*1730 N7186
*1731 NAND2_1833
*1732 N7268
*1733 NAND2_1865
*1734 N7184
*1735 NAND2_1831
*1736 N7190
*1737 NOT1_1888
*1738 OR3_1837
*1739 N7198
*1740 NOT1_1886
*1741 OR3_1840
*1742 N6916
*1743 NOT1_1786
*1744 NOT1_1700
*1745 N7228
*1746 NOT1_1855
*1747 N6897
*1748 NOT1_1778
*1749 NOT1_1689
*1750 N7217
*1751 NOT1_1850
*1752 N6891
*1753 NOT1_1776
*1754 OR2_1685
*1755 N7215
*1756 NOT1_1848
*1757 N4984
*1758 N7208
*1759 N3805
*1760 AND3_733
*1761 N4980
*1762 N7207
*1763 N3800
*1764 AND3_728
*1765 N7206
*1766 NAND2_1843
*1767 N7151
*1768 NAND2_1807
*1769 N7003
*1770 NOT1_1805
*1771 NAND2_1741
*1772 N7205
*1773 NOT1_1842
*1774 N3998
*1775 N7197
*1776 N3788
*1777 N4961
*1778 N7196
*1779 N3787
*1780 N4959
*1781 N7189
*1782 N3784
*1783 N4958
*1784 N7188
*1785 N3783
*1786 N4957
*1787 N7187
*1788 N3782
*1789 N6795
*1790 NOT1_1735
*1791 NAND2_1620
*1792 N7185
*1793 NOT1_1832
*1794 N6792
*1795 NOT1_1734
*1796 NAND2_1619
*1797 N7183
*1798 NOT1_1830
*1799 N7181
*1800 AND2_1828
*1801 N7064
*1802 AND2_1769
*1803 N7180
*1804 AND2_1827
*1805 N7141
*1806 AND2_1802
*1807 N7179
*1808 AND2_1826
*1809 N7140
*1810 AND2_1801
*1811 N7178
*1812 AND2_1825
*1813 N7139
*1814 AND2_1800
*1815 N7176
*1816 AND2_1823
*1817 N7040
*1818 AND2_1758
*1819 N7175
*1820 AND2_1822
*1821 N7127
*1822 AND2_1797
*1823 N7174
*1824 AND2_1821
*1825 N7126
*1826 AND2_1796
*1827 N7173
*1828 AND2_1820
*1829 N7125
*1830 AND2_1795
*1831 N7090
*1832 NAND2_1785
*1833 N7093
*1834 N7089
*1835 NAND2_1784
*1836 N7160
*1837 NAND2_1812
*1838 N7087
*1839 NAND2_1782
*1840 N7159
*1841 NAND2_1811
*1842 N7085
*1843 NAND2_1780
*1844 N7158
*1845 NAND2_1810
*1846 N7080
*1847 NAND2_1777
*1848 N7083
*1849 N7076
*1850 NAND2_1775
*1851 N7079
*1852 N7075
*1853 NAND2_1774
*1854 N7153
*1855 NAND2_1809
*1856 N7073
*1857 NAND2_1772
*1858 N7152
*1859 NAND2_1808
*1860 N7054
*1861 NAND2_1766
*1862 N7028
*1863 NAND2_1754
*1864 N6637
*1865 NOT1_1675
*1866 NAND2_1544
*1867 N7150
*1868 NOT1_1806
*1869 N7101
*1870 NAND2_1789
*1871 N7149
*1872 N4960
*1873 N7147
*1874 N3786
*1875 N7057
*1876 NAND2_1767
*1877 N7060
*1878 NAND2_1768
*1879 N4956
*1880 N7146
*1881 N3781
*1882 N7031
*1883 NAND2_1755
*1884 N7034
*1885 NAND2_1756
*1886 N7037
*1887 NAND2_1757
*1888 N7097
*1889 NAND2_1788
*1890 N6978
*1891 N7094
*1892 NAND2_1787
*1893 N6977
*1894 N5573
*1895 AND2_1386
*1896 AND3_1383
*1897 AND4_1381
*1898 NOT1_1380
*1899 NAND2_1258
*1900 N7049
*1901 NOT1_1765
*1902 N6958
*1903 NAND2_1725
*1904 N7131
*1905 NOT1_1799
*1906 N7130
*1907 NOT1_1798
*1908 N5418
*1909 AND2_1336
*1910 AND3_1332
*1911 AND4_1329
*1912 NOT1_1328
*1913 NAND2_1241
*1914 N7023
*1915 NOT1_1753
*1916 N6940
*1917 NAND2_1715
*1918 N7116
*1919 NOT1_1794
*1920 N7115
*1921 NOT1_1793
*1922 N6606
*1923 NOT1_1696
*1924 OR4_1535
*1925 N7088
*1926 NOT1_1783
*1927 N5205
*1928 NOT1_1286
*1929 BUFF1_1155
*1930 N7086
*1931 NOT1_1781
*1932 N4646
*1933 NOT1_1152
*1934 NOR2_956
*1935 N7084
*1936 NOT1_1779
*1937 N5173
*1938 NOT1_1283
*1939 BUFF1_1143
*1940 N7074
*1941 NOT1_1773
*1942 N4605
*1943 NOT1_1142
*1944 NOR2_943
*1945 N7072
*1946 NOT1_1771
*1947 N7006
*1948 NAND2_1742
*1949 N6876
*1950 N6967
*1951 NAND2_1729
*1952 N6932
*1953 NAND2_1709
*1954 N6844
*1955 OR2_1657
*1956 N7048
*1957 NOT1_1764
*1958 N7046
*1959 NAND2_1762
*1960 N7044
*1961 NAND2_1760
*1962 N7047
*1963 NAND2_1763
*1964 N7045
*1965 NAND2_1761
*1966 N6817
*1967 OR2_1637
*1968 N7022
*1969 NOT1_1752
*1970 N7020
*1971 NAND2_1750
*1972 N7018
*1973 NAND2_1748
*1974 N7021
*1975 NAND2_1751
*1976 N7019
*1977 NAND2_1749
*1978 N1755
*1979 N7002
*1980 NAND2_1740
*1981 N6923
*1982 NAND2_1703
*1983 N6976
*1984 NOR2_1733
*1985 N6975
*1986 NOR2_1732
*1987 N6974
*1988 NOR2_1731
*1989 N6973
*1990 NOR2_1730
*1991 N6915
*1992 NAND2_1699
*1993 N6999
*1994 NAND2_1739
*1995 N6909
*1996 OR2_1695
*1997 N6912
*1998 N6905
*1999 NOT1_1693
*2000 N5731
*2001 N6901
*2002 OR2_1691
*2003 N5198
*2004 N6896
*2005 NAND2_1688
*2006 N6990
*2007 NAND2_1738
*2008 N6890
*2009 NAND2_1684
*2010 N6987
*2011 NAND2_1737
*2012 N6885
*2013 NOT1_1681
*2014 N5727
*2015 N6881
*2016 OR2_1679
*2017 N5172
*2018 N6703
*2019 NOT1_1579
*2020 N6139
*2021 N6966
*2022 NAND2_1728
*2023 N6855
*2024 NAND2_1663
*2025 N6965
*2026 NAND2_1727
*2027 N6853
*2028 NAND2_1661
*2029 N6964
*2030 NAND2_1726
*2031 N6851
*2032 NAND2_1659
*2033 N6957
*2034 NAND2_1724
*2035 N6956
*2036 NAND2_1723
*2037 N6841
*2038 NAND2_1654
*2039 N6955
*2040 NAND2_1722
*2041 N6839
*2042 NAND2_1652
*2043 N6954
*2044 NAND2_1721
*2045 N6837
*2046 NAND2_1650
*2047 N6953
*2048 NAND2_1720
*2049 N6835
*2050 NAND2_1648
*2051 N6675
*2052 NOT1_1565
*2053 N6079
*2054 N6949
*2055 NAND2_1719
*2056 N6830
*2057 NAND2_1645
*2058 N6948
*2059 NAND2_1718
*2060 N6828
*2061 NAND2_1643
*2062 N6947
*2063 NAND2_1717
*2064 N6826
*2065 NAND2_1641
*2066 N6946
*2067 NAND2_1716
*2068 N6824
*2069 NAND2_1639
*2070 N6939
*2071 NAND2_1714
*2072 N6938
*2073 NAND2_1713
*2074 N6814
*2075 NAND2_1634
*2076 N6937
*2077 NAND2_1712
*2078 N6812
*2079 NAND2_1632
*2080 N6936
*2081 NAND2_1711
*2082 N6810
*2083 NAND2_1630
*2084 N6935
*2085 NAND2_1710
*2086 N6808
*2087 NAND2_1628
*2088 N6866
*2089 NOT1_1746
*2090 OR3_1670
*2091 N6875
*2092 NOR2_1674
*2093 N6874
*2094 NOR2_1673
*2095 N6873
*2096 NOR2_1672
*2097 N6872
*2098 NOR2_1671
*2099 N5377
*2100 NOT1_1317
*2101 NAND2_1234
*2102 N6922
*2103 NOT1_1702
*2104 N5217
*2105 NOT1_1289
*2106 BUFF1_1159
*2107 N6914
*2108 NOT1_1698
*2109 N5177
*2110 NOT1_1284
*2111 BUFF1_1145
*2112 N6895
*2113 NOT1_1687
*2114 N4608
*2115 NOT1_1144
*2116 NOR2_944
*2117 N6889
*2118 NOT1_1683
*2119 N6879
*2120 AND2_1677
*2121 N6880
*2122 AND2_1678
*2123 N6863
*2124 AND3_1669
*2125 N6715
*2126 AND3_1587
*2127 N6862
*2128 AND3_1668
*2129 N6714
*2130 AND3_1586
*2131 N6861
*2132 AND3_1667
*2133 N6713
*2134 AND3_1585
*2135 N6860
*2136 AND3_1666
*2137 N6712
*2138 AND3_1584
*2139 N6699
*2140 NAND2_1577
*2141 N6856
*2142 NAND2_1664
*2143 N6335
*2144 NOT1_1576
*2145 BUFF1_1468
*2146 N6854
*2147 NOT1_1662
*2148 N6048
*2149 NOT1_1495
*2150 BUFF1_1312
*2151 N6852
*2152 NOT1_1660
*2153 N6331
*2154 NOT1_1575
*2155 BUFF1_1467
*2156 N6850
*2157 NOT1_1658
*2158 N6691
*2159 NAND2_1572
*2160 N6843
*2161 NAND2_1656
*2162 N6689
*2163 NAND2_1570
*2164 N6842
*2165 NAND2_1655
*2166 N5192
*2167 NOT1_1267
*2168 BUFF1_1150
*2169 N6840
*2170 NOT1_1653
*2171 N5189
*2172 NOT1_1266
*2173 BUFF1_1149
*2174 N6838
*2175 NOT1_1651
*2176 N5186
*2177 NOT1_1265
*2178 BUFF1_1148
*2179 N6836
*2180 NOT1_1649
*2181 N5183
*2182 NOT1_1264
*2183 BUFF1_1147
*2184 N6834
*2185 NOT1_1647
*2186 N6268
*2187 NOT1_1564
*2188 BUFF1_1446
*2189 N6829
*2190 NOT1_1644
*2191 N6265
*2192 NOT1_1563
*2193 BUFF1_1445
*2194 N6827
*2195 NOT1_1642
*2196 N6262
*2197 NOT1_1562
*2198 BUFF1_1444
*2199 N6825
*2200 NOT1_1640
*2201 N6259
*2202 NOT1_1561
*2203 BUFF1_1443
*2204 N6823
*2205 NOT1_1638
*2206 N6662
*2207 NAND2_1558
*2208 N6816
*2209 NAND2_1636
*2210 N6660
*2211 NAND2_1556
*2212 N6815
*2213 NAND2_1635
*2214 N6250
*2215 NOT1_1555
*2216 BUFF1_1440
*2217 N6813
*2218 NOT1_1633
*2219 N6247
*2220 NOT1_1554
*2221 BUFF1_1439
*2222 N6811
*2223 NOT1_1631
*2224 N6244
*2225 NOT1_1553
*2226 BUFF1_1438
*2227 N6809
*2228 NOT1_1629
*2229 N6241
*2230 NOT1_1552
*2231 BUFF1_1437
*2232 N6807
*2233 NOT1_1627
*2234 N6650
*2235 NAND2_1550
*2236 N6806
*2237 NAND2_1626
*2238 N6724
*2239 BUFF1_1676
*2240 NAND2_1594