*SPEF "1481-1998"
*DESIGN "c6288"
*DATE "Wed Jul  2 15:18:05 2014"
*VENDOR "Synopsys, Inc."
*PROGRAM "icc_shell"
*VERSION "G-2012.06-ICC-SP5"
*DESIGN_FLOW "PIN_CAP NONE"
*DIVIDER /
*DELIMITER :
*BUS_DELIMITER [ ]
*T_UNIT 1 NS
*C_UNIT 1 FF
*R_UNIT 1 OHM
*L_UNIT 1 HENRY

*NAME_MAP
*1 N120
*2 N103
*3 N86
*4 N69
*5 N52
*6 N35
*7 N18
*8 N1
*9 N256
*10 N239
*11 N222
*12 N205
*13 N188
*14 N171
*15 N154
*16 N137
*17 N392
*18 N375
*19 N358
*20 N341
*21 N324
*22 N307
*23 N290
*24 N273
*25 N528
*26 N511
*27 N494
*28 N477
*29 N460
*30 N443
*31 N426
*32 N409
*33 N3552
*34 N3211
*35 N2877
*36 N2548
*37 N2223
*38 N1901
*39 N1581
*40 N545
*41 N6123
*42 N5971
*43 N5672
*44 N5308
*45 N4946
*46 N4591
*47 N4241
*48 N3895
*49 N6220
*50 N6210
*51 N6200
*52 N6190
*53 N6180
*54 N6170
*55 N6160
*56 N6150
*57 N6288
*58 N6287
*59 N6280
*60 N6270
*61 N6260
*62 N6250
*63 N6240
*64 N6230
*65 VDD
*66 VSS
*67 N6285
*68 NOR2_2416
*69 NOR2_2413
*70 N6286
*71 NOR2_2414
*72 N5602
*73 NOR2_2415
*74 NOR2_2135
*75 NOR2_2134
*76 NOR2_2104
*77 N6281
*78 NOR2_2412
*79 N6277
*80 NOR2_2410
*81 N5727
*82 NOR2_2160
*83 N6275
*84 NOR2_2411
*85 NOR2_2408
*86 N6276
*87 NOR2_2409
*88 N5666
*89 NOR2_2159
*90 NOR2_2158
*91 NOR2_2133
*92 N6271
*93 NOR2_2407
*94 N6267
*95 NOR2_2405
*96 N5782
*97 NOR2_2183
*98 N6265
*99 NOR2_2406
*100 NOR2_2403
*101 N6266
*102 NOR2_2404
*103 N5721
*104 NOR2_2182
*105 NOR2_2181
*106 NOR2_2157
*107 N6261
*108 NOR2_2402
*109 N6257
*110 NOR2_2400
*111 N5831
*112 NOR2_2206
*113 N6255
*114 NOR2_2401
*115 NOR2_2398
*116 N6256
*117 NOR2_2399
*118 N5776
*119 NOR2_2205
*120 NOR2_2204
*121 NOR2_2180
*122 N6251
*123 NOR2_2397
*124 N6247
*125 NOR2_2395
*126 N5879
*127 NOR2_2226
*128 N6245
*129 NOR2_2396
*130 NOR2_2393
*131 N6246
*132 NOR2_2394
*133 N5825
*134 NOR2_2225
*135 NOR2_2224
*136 NOR2_2203
*137 N6241
*138 NOR2_2392
*139 N6237
*140 NOR2_2390
*141 N5925
*142 NOR2_2245
*143 N6235
*144 NOR2_2391
*145 NOR2_2388
*146 N6236
*147 NOR2_2389
*148 N5873
*149 NOR2_2244
*150 NOR2_2243
*151 NOR2_2223
*152 N6231
*153 NOR2_2387
*154 N6227
*155 NOR2_2385
*156 N5968
*157 NOR2_2265
*158 N6225
*159 NOR2_2386
*160 NOR2_2383
*161 N6226
*162 NOR2_2384
*163 N5919
*164 NOR2_2264
*165 NOR2_2263
*166 NOR2_2242
*167 N6221
*168 NOR2_2382
*169 N6217
*170 NOR2_2380
*171 N6002
*172 NOR2_2280
*173 N6215
*174 NOR2_2381
*175 NOR2_2378
*176 N6216
*177 NOR2_2379
*178 N5962
*179 NOR2_2279
*180 NOR2_2278
*181 NOR2_2262
*182 N6211
*183 NOR2_2377
*184 N6207
*185 NOR2_2375
*186 N6032
*187 NOR2_2293
*188 N6205
*189 NOR2_2376
*190 NOR2_2373
*191 N6206
*192 NOR2_2374
*193 N5996
*194 NOR2_2292
*195 NOR2_2291
*196 NOR2_2277
*197 N6201
*198 NOR2_2372
*199 N6197
*200 NOR2_2370
*201 N6058
*202 NOR2_2305
*203 N6195
*204 NOR2_2371
*205 NOR2_2368
*206 N6196
*207 NOR2_2369
*208 N6026
*209 NOR2_2304
*210 NOR2_2303
*211 NOR2_2290
*212 N6191
*213 NOR2_2367
*214 N6187
*215 NOR2_2365
*216 N6082
*217 NOR2_2315
*218 N6185
*219 NOR2_2366
*220 NOR2_2363
*221 N6186
*222 NOR2_2364
*223 N6052
*224 NOR2_2314
*225 NOR2_2313
*226 NOR2_2302
*227 N6181
*228 NOR2_2362
*229 N6177
*230 NOR2_2360
*231 N6103
*232 NOR2_2324
*233 N6175
*234 NOR2_2361
*235 NOR2_2358
*236 N6176
*237 NOR2_2359
*238 N6076
*239 NOR2_2323
*240 NOR2_2322
*241 NOR2_2312
*242 N6171
*243 NOR2_2357
*244 N6167
*245 NOR2_2355
*246 N6120
*247 NOR2_2332
*248 N6165
*249 NOR2_2356
*250 NOR2_2353
*251 N6166
*252 NOR2_2354
*253 N6097
*254 NOR2_2331
*255 NOR2_2330
*256 NOR2_2321
*257 N6161
*258 NOR2_2352
*259 N6157
*260 NOR2_2350
*261 N6130
*262 NOR2_2337
*263 N6155
*264 NOR2_2351
*265 NOR2_2348
*266 N6156
*267 NOR2_2349
*268 N6114
*269 NOR2_2336
*270 NOR2_2335
*271 NOR2_2329
*272 N6151
*273 NOR2_2347
*274 N6147
*275 NOR2_2345
*276 N6135
*277 NOR2_2340
*278 N6145
*279 NOR2_2346
*280 NOR2_2343
*281 N6146
*282 NOT1_2344
*283 N6124
*284 NOR2_2339
*285 NOR2_2338
*286 NOR2_2334
*287 N6141
*288 NOT1_2342
*289 N6138
*290 NOR2_2341
*291 N6133
*292 N6134
*293 N6128
*294 N6129
*295 N6108
*296 NOR2_2327
*297 N6111
*298 NOR2_2328
*299 N6118
*300 N6119
*301 N6091
*302 NOR2_2319
*303 N6094
*304 NOR2_2320
*305 N6106
*306 NOR2_2333
*307 NOR2_2325
*308 N6107
*309 NOR2_2326
*310 N6101
*311 N6102
*312 N6070
*313 NOR2_2310
*314 N6073
*315 NOR2_2311
*316 N6089
*317 NOR2_2317
*318 N6090
*319 NOR2_2318
*320 N6005
*321 NOR2_2295
*322 NOR2_2294
*323 NOR2_2281
*324 N6085
*325 NOR2_2316
*326 N588
*327 AND2_16
*328 N6061
*329 NOR2_2306
*330 N6080
*331 N6081
*332 N6046
*333 NOR2_2300
*334 N6049
*335 NOR2_2301
*336 N6068
*337 NOR2_2308
*338 N6069
*339 NOR2_2309
*340 N5975
*341 NOR2_2283
*342 NOR2_2282
*343 NOR2_2268
*344 N6064
*345 NOR2_2307
*346 N636
*347 AND2_32
*348 N6037
*349 NOR2_2296
*350 N6056
*351 N6057
*352 N6020
*353 NOR2_2288
*354 N6023
*355 NOR2_2289
*356 N6044
*357 NOR2_2298
*358 N6045
*359 NOR2_2299
*360 N5941
*361 NOR2_2270
*362 NOR2_2269
*363 NOR2_2253
*364 N6040
*365 NOR2_2297
*366 N684
*367 AND2_48
*368 N6011
*369 NOR2_2284
*370 N6035
*371 N6036
*372 N6030
*373 N6031
*374 N5990
*375 NOR2_2275
*376 N5993
*377 NOR2_2276
*378 N6018
*379 NOR2_2286
*380 N6019
*381 NOR2_2287
*382 N5898
*383 NOR2_2255
*384 NOR2_2254
*385 NOR2_2233
*386 N6014
*387 NOR2_2285
*388 N732
*389 AND2_64
*390 N5981
*391 NOR2_2271
*392 N6009
*393 N6010
*394 N5930
*395 NOR2_2248
*396 N5972
*397 NOR2_2267
*398 N6000
*399 N6001
*400 N5956
*401 NOR2_2260
*402 N5959
*403 NOR2_2261
*404 N5988
*405 NOR2_2273
*406 N5989
*407 NOR2_2274
*408 N5852
*409 NOR2_2235
*410 NOR2_2234
*411 NOR2_2214
*412 N5984
*413 NOR2_2272
*414 N780
*415 AND2_80
*416 N5947
*417 NOR2_2256
*418 N5979
*419 N5980
*420 N5935
*421 NOR2_2251
*422 N5938
*423 NOR2_2252
*424 N5966
*425 N5967
*426 N5913
*427 NOR2_2240
*428 N5916
*429 NOR2_2241
*430 N5954
*431 NOR2_2258
*432 N5955
*433 NOR2_2259
*434 N5804
*435 NOR2_2216
*436 NOR2_2215
*437 NOR2_2194
*438 N5950
*439 NOR2_2257
*440 N828
*441 AND2_96
*442 N5904
*443 NOR2_2236
*444 N5945
*445 N5946
*446 N5892
*447 NOR2_2231
*448 N5895
*449 NOR2_2232
*450 N5933
*451 NOR2_2249
*452 N5934
*453 NOR2_2250
*454 N5928
*455 NOR2_2266
*456 NOR2_2246
*457 N5929
*458 NOR2_2247
*459 N5923
*460 N5924
*461 N5867
*462 NOR2_2221
*463 N5870
*464 NOR2_2222
*465 N5911
*466 NOR2_2238
*467 N5912
*468 NOR2_2239
*469 N5755
*470 NOR2_2196
*471 NOR2_2195
*472 NOR2_2171
*473 N5907
*474 NOR2_2237
*475 N876
*476 AND2_112
*477 N5858
*478 NOR2_2217
*479 N5902
*480 N5903
*481 N5846
*482 NOR2_2212
*483 N5849
*484 NOR2_2213
*485 N5890
*486 NOR2_2229
*487 N5891
*488 NOR2_2230
*489 N5734
*490 NOR2_2187
*491 NOR2_2186
*492 NOR2_2162
*493 N5886
*494 NOR2_2228
*495 N633
*496 AND2_31
*497 N5837
*498 NOR2_2208
*499 N5730
*500 NOR2_2185
*501 NOR2_2184
*502 NOR2_2161
*503 N5882
*504 NOR2_2227
*505 N585
*506 AND2_15
*507 N5834
*508 NOR2_2207
*509 N5877
*510 N5878
*511 N5819
*512 NOR2_2201
*513 N5822
*514 NOR2_2202
*515 N5865
*516 NOR2_2219
*517 N5866
*518 NOR2_2220
*519 N5700
*520 NOR2_2173
*521 NOR2_2172
*522 NOR2_2148
*523 N5861
*524 NOR2_2218
*525 N924
*526 AND2_128
*527 N5810
*528 NOR2_2197
*529 N5856
*530 N5857
*531 N5798
*532 NOR2_2192
*533 N5801
*534 NOR2_2193
*535 N5844
*536 NOR2_2210
*537 N5845
*538 NOR2_2211
*539 N5679
*540 NOR2_2164
*541 NOR2_2163
*542 NOR2_2139
*543 N5840
*544 NOR2_2209
*545 N681
*546 AND2_47
*547 N5789
*548 NOR2_2188
*549 N5829
*550 N5830
*551 N5770
*552 NOR2_2178
*553 N5773
*554 NOR2_2179
*555 N5817
*556 NOR2_2199
*557 N5818
*558 NOR2_2200
*559 N5645
*560 NOR2_2150
*561 NOR2_2149
*562 NOR2_2124
*563 N5813
*564 NOR2_2198
*565 N972
*566 AND2_144
*567 N5761
*568 NOR2_2174
*569 N5808
*570 N5809
*571 N5749
*572 NOR2_2169
*573 N5752
*574 NOR2_2170
*575 N5796
*576 NOR2_2190
*577 N5797
*578 NOR2_2191
*579 N5624
*580 NOR2_2141
*581 NOR2_2140
*582 NOR2_2115
*583 N5792
*584 NOR2_2189
*585 N729
*586 AND2_63
*587 N5740
*588 NOR2_2165
*589 N5787
*590 N5788
*591 N5785
*592 N5786
*593 N5780
*594 N5781
*595 N5715
*596 NOR2_2155
*597 N5718
*598 NOR2_2156
*599 N5768
*600 NOR2_2176
*601 N5769
*602 NOR2_2177
*603 N5581
*604 NOR2_2126
*605 NOR2_2125
*606 NOR2_2095
*607 N5764
*608 NOR2_2175
*609 N1020
*610 AND2_160
*611 N5706
*612 NOR2_2151
*613 N5759
*614 N5760
*615 N5694
*616 NOR2_2146
*617 N5697
*618 NOR2_2147
*619 N5747
*620 NOR2_2167
*621 N5748
*622 NOR2_2168
*623 N5560
*624 NOR2_2117
*625 NOR2_2116
*626 NOR2_2086
*627 N5743
*628 NOR2_2166
*629 N777
*630 AND2_79
*631 N5685
*632 NOR2_2142
*633 N5738
*634 N5739
*635 N5613
*636 NOR2_2110
*637 N5676
*638 NOR2_2138
*639 N5608
*640 NOR2_2107
*641 N5673
*642 NOR2_2137
*643 N5725
*644 N5726
*645 N5660
*646 NOR2_2131
*647 N5663
*648 NOR2_2132
*649 N5713
*650 NOR2_2153
*651 N5714
*652 NOR2_2154
*653 N5522
*654 NOR2_2097
*655 NOR2_2096
*656 NOR2_2071
*657 N5709
*658 NOR2_2152
*659 N1068
*660 AND2_176
*661 N5651
*662 NOR2_2127
*663 N5704
*664 N5705
*665 N5639
*666 NOR2_2122
*667 N5642
*668 NOR2_2123
*669 N5692
*670 NOR2_2144
*671 N5693
*672 NOR2_2145
*673 N5501
*674 NOR2_2088
*675 NOR2_2087
*676 NOR2_2062
*677 N5688
*678 NOR2_2143
*679 N825
*680 AND2_95
*681 N5630
*682 NOR2_2118
*683 N5683
*684 N5684
*685 N5618
*686 NOR2_2113
*687 N5621
*688 NOR2_2114
*689 N5670
*690 N5671
*691 N5596
*692 NOR2_2102
*693 N5599
*694 NOR2_2103
*695 N5658
*696 NOR2_2129
*697 N5659
*698 NOR2_2130
*699 N5467
*700 NOR2_2073
*701 NOR2_2072
*702 NOR2_2049
*703 N5654
*704 NOR2_2128
*705 N1116
*706 AND2_192
*707 N5587
*708 NOR2_2098
*709 N5649
*710 N5650
*711 N5575
*712 NOR2_2093
*713 N5578
*714 NOR2_2094
*715 N5637
*716 NOR2_2120
*717 N5638
*718 NOR2_2121
*719 N5446
*720 NOR2_2064
*721 NOR2_2063
*722 NOR2_2040
*723 N5633
*724 NOR2_2119
*725 N873
*726 AND2_111
*727 N5566
*728 NOR2_2089
*729 N5628
*730 N5629
*731 N5554
*732 NOR2_2084
*733 N5557
*734 NOR2_2085
*735 N5616
*736 NOR2_2111
*737 N5617
*738 NOR2_2112
*739 N5611
*740 NOR2_2108
*741 N5612
*742 NOR2_2109
*743 N5606
*744 NOR2_2136
*745 NOR2_2105
*746 N5607
*747 NOR2_2106
*748 N5537
*749 NOR2_2078
*750 N1308
*751 AND2_256
*752 N5594
*753 NOR2_2100
*754 N5595
*755 NOR2_2101
*756 N5416
*757 NOR2_2051
*758 NOR2_2050
*759 NOR2_2024
*760 N5590
*761 NOR2_2099
*762 N1164
*763 AND2_208
*764 N5528
*765 NOR2_2074
*766 N5585
*767 N5586
*768 N5516
*769 NOR2_2069
*770 N5519
*771 NOR2_2070
*772 N5573
*773 NOR2_2091
*774 N5574
*775 NOR2_2092
*776 N5395
*777 NOR2_2042
*778 NOR2_2041
*779 NOR2_2015
*780 N5569
*781 NOR2_2090
*782 N921
*783 AND2_127
*784 N5507
*785 NOR2_2065
*786 N5564
*787 N5565
*788 N5495
*789 NOR2_2060
*790 N5498
*791 NOR2_2061
*792 N5552
*793 NOR2_2082
*794 N5553
*795 NOR2_2083
*796 N5374
*797 NOR2_2033
*798 NOR2_2032
*799 NOR2_2006
*800 N5548
*801 NOR2_2081
*802 N678
*803 AND2_46
*804 N5486
*805 NOR2_2056
*806 N5370
*807 NOR2_2031
*808 NOR2_2030
*809 NOR2_2005
*810 N5544
*811 NOR2_2080
*812 N630
*813 AND2_30
*814 N5483
*815 NOR2_2055
*816 N5366
*817 NOR2_2029
*818 NOR2_2028
*819 NOR2_2004
*820 N5540
*821 NOR2_2079
*822 N582
*823 AND2_14
*824 N5480
*825 NOR2_2054
*826 N5535
*827 NOR2_2076
*828 N5536
*829 NOR2_2077
*830 N5360
*831 NOR2_2026
*832 NOR2_2025
*833 NOR2_2001
*834 N5531
*835 NOR2_2075
*836 N1212
*837 AND2_224
*838 N5473
*839 NOR2_2052
*840 N5526
*841 N5527
*842 N5461
*843 NOR2_2047
*844 N5464
*845 NOR2_2048
*846 N5514
*847 NOR2_2067
*848 N5515
*849 NOR2_2068
*850 N5339
*851 NOR2_2017
*852 NOR2_2016
*853 NOR2_1992
*854 N5510
*855 NOR2_2066
*856 N969
*857 AND2_143
*858 N5452
*859 NOR2_2043
*860 N5505
*861 N5506
*862 N5440
*863 NOR2_2038
*864 N5443
*865 NOR2_2039
*866 N5493
*867 NOR2_2058
*868 N5494
*869 NOR2_2059
*870 N5318
*871 NOR2_2008
*872 NOR2_2007
*873 NOR2_1983
*874 N5489
*875 NOR2_2057
*876 N726
*877 AND2_62
*878 N5431
*879 NOR2_2034
*880 N5304
*881 NOR2_2003
*882 NOR2_2002
*883 NOR2_1978
*884 N5476
*885 NOR2_2053
*886 N1260
*887 AND2_240
*888 N5422
*889 NOR2_2027
*890 N5471
*891 N5472
*892 N5410
*893 NOR2_2022
*894 N5413
*895 NOR2_2023
*896 N5459
*897 NOR2_2045
*898 N5460
*899 NOR2_2046
*900 N5283
*901 NOR2_1994
*902 NOR2_1993
*903 NOR2_1969
*904 N5455
*905 NOR2_2044
*906 N1017
*907 AND2_159
*908 N5401
*909 NOR2_2018
*910 N5450
*911 N5451
*912 N5389
*913 NOR2_2013
*914 N5392
*915 NOR2_2014
*916 N5438
*917 NOR2_2036
*918 N5439
*919 NOR2_2037
*920 N5262
*921 NOR2_1985
*922 NOR2_1984
*923 NOR2_1960
*924 N5434
*925 NOR2_2035
*926 N774
*927 AND2_78
*928 N5380
*929 NOR2_2009
*930 N5429
*931 N5430
*932 N5427
*933 N5428
*934 N5425
*935 N5426
*936 N5420
*937 N5421
*938 N5354
*939 NOR2_1999
*940 N5357
*941 NOR2_2000
*942 N5408
*943 NOR2_2020
*944 N5409
*945 NOR2_2021
*946 N5221
*947 NOR2_1971
*948 NOR2_1970
*949 NOR2_1939
*950 N5404
*951 NOR2_2019
*952 N1065
*953 AND2_175
*954 N5345
*955 NOR2_1995
*956 N5399
*957 N5400
*958 N5333
*959 NOR2_1990
*960 N5336
*961 NOR2_1991
*962 N5387
*963 NOR2_2011
*964 N5388
*965 NOR2_2012
*966 N5200
*967 NOR2_1962
*968 NOR2_1961
*969 NOR2_1930
*970 N5383
*971 NOR2_2010
*972 N822
*973 AND2_94
*974 N5324
*975 NOR2_1986
*976 N5378
*977 N5379
*978 N5251
*979 NOR2_1955
*980 N5315
*981 NOR2_1982
*982 N5246
*983 NOR2_1952
*984 N5312
*985 NOR2_1981
*986 N5241
*987 NOR2_1949
*988 N5309
*989 NOR2_1980
*990 N5364
*991 N5365
*992 N5298
*993 NOR2_1976
*994 N5301
*995 NOR2_1977
*996 N5352
*997 NOR2_1997
*998 N5353
*999 NOR2_1998
*1000 N5163
*1001 NOR2_1941
*1002 NOR2_1940
*1003 NOR2_1917
*1004 N5348
*1005 NOR2_1996
*1006 N1113
*1007 AND2_191
*1008 N5289
*1009 NOR2_1972
*1010 N5343
*1011 N5344
*1012 N5277
*1013 NOR2_1967
*1014 N5280
*1015 NOR2_1968
*1016 N5331
*1017 NOR2_1988
*1018 N5332
*1019 NOR2_1989
*1020 N5142
*1021 NOR2_1932
*1022 NOR2_1931
*1023 NOR2_1908
*1024 N5327
*1025 NOR2_1987
*1026 N870
*1027 AND2_110
*1028 N5268
*1029 NOR2_1963
*1030 N5322
*1031 N5323
*1032 N5256
*1033 NOR2_1958
*1034 N5259
*1035 NOR2_1959
*1036 N5236
*1037 NOR2_1946
*1038 N1305
*1039 AND2_255
*1040 N5296
*1041 NOR2_1974
*1042 N5297
*1043 NOR2_1975
*1044 N5109
*1045 NOR2_1919
*1046 NOR2_1918
*1047 NOR2_1895
*1048 N5292
*1049 NOR2_1973
*1050 N1161
*1051 AND2_207
*1052 N5227
*1053 NOR2_1942
*1054 N5287
*1055 N5288
*1056 N5215
*1057 NOR2_1937
*1058 N5218
*1059 NOR2_1938
*1060 N5275
*1061 NOR2_1965
*1062 N5276
*1063 NOR2_1966
*1064 N5088
*1065 NOR2_1910
*1066 NOR2_1909
*1067 NOR2_1886
*1068 N5271
*1069 NOR2_1964
*1070 N918
*1071 AND2_126
*1072 N5206
*1073 NOR2_1933
*1074 N5266
*1075 N5267
*1076 N5194
*1077 NOR2_1928
*1078 N5197
*1079 NOR2_1929
*1080 N5254
*1081 NOR2_1956
*1082 N5255
*1083 NOR2_1957
*1084 N5249
*1085 NOR2_1953
*1086 N5250
*1087 NOR2_1954
*1088 N5244
*1089 NOR2_1950
*1090 N5245
*1091 NOR2_1951
*1092 N5239
*1093 NOR2_1979
*1094 NOR2_1947
*1095 N5240
*1096 NOR2_1948
*1097 N5234
*1098 NOR2_1944
*1099 N5235
*1100 NOR2_1945
*1101 N5059
*1102 NOR2_1897
*1103 NOR2_1896
*1104 NOR2_1869
*1105 N5230
*1106 NOR2_1943
*1107 N1209
*1108 AND2_223
*1109 N5169
*1110 NOR2_1920
*1111 N5225
*1112 N5226
*1113 N5157
*1114 NOR2_1915
*1115 N5160
*1116 NOR2_1916
*1117 N5213
*1118 NOR2_1935
*1119 N5214
*1120 NOR2_1936
*1121 N5038
*1122 NOR2_1888
*1123 NOR2_1887
*1124 NOR2_1860
*1125 N5209
*1126 NOR2_1934
*1127 N966
*1128 AND2_142
*1129 N5148
*1130 NOR2_1911
*1131 N5204
*1132 N5205
*1133 N5136
*1134 NOR2_1906
*1135 N5139
*1136 NOR2_1907
*1137 N5192
*1138 NOR2_1926
*1139 N5193
*1140 NOR2_1927
*1141 N5017
*1142 NOR2_1879
*1143 NOR2_1878
*1144 NOR2_1851
*1145 N5188
*1146 NOR2_1925
*1147 N723
*1148 AND2_61
*1149 N5127
*1150 NOR2_1902
*1151 N5013
*1152 NOR2_1877
*1153 NOR2_1876
*1154 NOR2_1850
*1155 N5184
*1156 NOR2_1924
*1157 N675
*1158 AND2_45
*1159 N5124
*1160 NOR2_1901
*1161 N5009
*1162 NOR2_1875
*1163 NOR2_1874
*1164 NOR2_1849
*1165 N5180
*1166 NOR2_1923
*1167 N627
*1168 AND2_29
*1169 N5121
*1170 NOR2_1900
*1171 N5005
*1172 NOR2_1873
*1173 NOR2_1872
*1174 NOR2_1848
*1175 N5176
*1176 NOR2_1922
*1177 N579
*1178 AND2_13
*1179 N5118
*1180 NOR2_1899
*1181 N5001
*1182 NOR2_1871
*1183 NOR2_1870
*1184 NOR2_1847
*1185 N5172
*1186 NOR2_1921
*1187 N1257
*1188 AND2_239
*1189 N5115
*1190 NOR2_1898
*1191 N5167
*1192 N5168
*1193 N5103
*1194 NOR2_1893
*1195 N5106
*1196 NOR2_1894
*1197 N5155
*1198 NOR2_1913
*1199 N5156
*1200 NOR2_1914
*1201 N4980
*1202 NOR2_1862
*1203 NOR2_1861
*1204 NOR2_1838
*1205 N5151
*1206 NOR2_1912
*1207 N1014
*1208 AND2_158
*1209 N5094
*1210 NOR2_1889
*1211 N5146
*1212 N5147
*1213 N5082
*1214 NOR2_1884
*1215 N5085
*1216 NOR2_1885
*1217 N5134
*1218 NOR2_1904
*1219 N5135
*1220 NOR2_1905
*1221 N4959
*1222 NOR2_1853
*1223 NOR2_1852
*1224 NOR2_1829
*1225 N5130
*1226 NOR2_1903
*1227 N771
*1228 AND2_77
*1229 N5073
*1230 NOR2_1880
*1231 N5113
*1232 N5114
*1233 N5053
*1234 NOR2_1867
*1235 N5056
*1236 NOR2_1868
*1237 N5101
*1238 NOR2_1891
*1239 N5102
*1240 NOR2_1892
*1241 N4928
*1242 NOR2_1840
*1243 NOR2_1839
*1244 NOR2_1816
*1245 N5097
*1246 NOR2_1890
*1247 N1062
*1248 AND2_174
*1249 N5044
*1250 NOR2_1863
*1251 N5092
*1252 N5093
*1253 N5032
*1254 NOR2_1858
*1255 N5035
*1256 NOR2_1859
*1257 N5080
*1258 NOR2_1882
*1259 N5081
*1260 NOR2_1883
*1261 N4907
*1262 NOR2_1831
*1263 NOR2_1830
*1264 NOR2_1807
*1265 N5076
*1266 NOR2_1881
*1267 N819
*1268 AND2_93
*1269 N5023
*1270 NOR2_1854
*1271 N5071
*1272 N5072
*1273 N5069
*1274 N5070
*1275 N5067
*1276 N5068
*1277 N5065
*1278 N5066
*1279 N5063
*1280 N5064
*1281 N4995
*1282 NOR2_1845
*1283 N4998
*1284 NOR2_1846
*1285 N5051
*1286 NOR2_1865
*1287 N5052
*1288 NOR2_1866
*1289 N4866
*1290 NOR2_1818
*1291 NOR2_1817
*1292 NOR2_1786
*1293 N5047
*1294 NOR2_1864
*1295 N1110
*1296 AND2_190
*1297 N4986
*1298 NOR2_1841
*1299 N5042
*1300 N5043
*1301 N4974
*1302 NOR2_1836
*1303 N4977
*1304 NOR2_1837
*1305 N5030
*1306 NOR2_1856
*1307 N5031
*1308 NOR2_1857
*1309 N4845
*1310 NOR2_1809
*1311 NOR2_1808
*1312 NOR2_1777
*1313 N5026
*1314 NOR2_1855
*1315 N867
*1316 AND2_109
*1317 N4965
*1318 NOR2_1832
*1319 N5021
*1320 N5022
*1321 N4896
*1322 NOR2_1802
*1323 N4956
*1324 NOR2_1828
*1325 N4891
*1326 NOR2_1799
*1327 N4953
*1328 NOR2_1827
*1329 N4886
*1330 NOR2_1796
*1331 N4950
*1332 NOR2_1826
*1333 N4881
*1334 NOR2_1793
*1335 N4947
*1336 NOR2_1825
*1337 N4943
*1338 NOR2_1823
*1339 N1302
*1340 AND2_254
*1341 N4993
*1342 NOR2_1843
*1343 N4994
*1344 NOR2_1844
*1345 N4808
*1346 NOR2_1788
*1347 NOR2_1787
*1348 NOR2_1764
*1349 N4989
*1350 NOR2_1842
*1351 N1158
*1352 AND2_206
*1353 N4934
*1354 NOR2_1819
*1355 N4984
*1356 N4985
*1357 N4922
*1358 NOR2_1814
*1359 N4925
*1360 NOR2_1815
*1361 N4972
*1362 NOR2_1834
*1363 N4973
*1364 NOR2_1835
*1365 N4787
*1366 NOR2_1779
*1367 NOR2_1778
*1368 NOR2_1755
*1369 N4968
*1370 NOR2_1833
*1371 N915
*1372 AND2_125
*1373 N4913
*1374 NOR2_1810
*1375 N4963
*1376 N4964
*1377 N4901
*1378 NOR2_1805
*1379 N4904
*1380 NOR2_1806
*1381 N4941
*1382 NOR2_1821
*1383 N4942
*1384 NOR2_1822
*1385 N4754
*1386 NOR2_1766
*1387 NOR2_1765
*1388 NOR2_1742
*1389 N4937
*1390 NOR2_1820
*1391 N1206
*1392 AND2_222
*1393 N4872
*1394 NOR2_1789
*1395 N4932
*1396 N4933
*1397 N4860
*1398 NOR2_1784
*1399 N4863
*1400 NOR2_1785
*1401 N4920
*1402 NOR2_1812
*1403 N4921
*1404 NOR2_1813
*1405 N4733
*1406 NOR2_1757
*1407 NOR2_1756
*1408 NOR2_1733
*1409 N4916
*1410 NOR2_1811
*1411 N963
*1412 AND2_141
*1413 N4851
*1414 NOR2_1780
*1415 N4911
*1416 N4912
*1417 N4839
*1418 NOR2_1775
*1419 N4842
*1420 NOR2_1776
*1421 N4899
*1422 NOR2_1803
*1423 N4900
*1424 NOR2_1804
*1425 N4894
*1426 NOR2_1800
*1427 N4895
*1428 NOR2_1801
*1429 N4889
*1430 NOR2_1797
*1431 N4890
*1432 NOR2_1798
*1433 N4884
*1434 NOR2_1794
*1435 N4885
*1436 NOR2_1795
*1437 N4879
*1438 NOR2_1824
*1439 NOR2_1791
*1440 N4880
*1441 NOR2_1792
*1442 N4704
*1443 NOR2_1744
*1444 NOR2_1743
*1445 NOR2_1716
*1446 N4875
*1447 NOR2_1790
*1448 N1254
*1449 AND2_238
*1450 N4814
*1451 NOR2_1767
*1452 N4870
*1453 N4871
*1454 N4802
*1455 NOR2_1762
*1456 N4805
*1457 NOR2_1763
*1458 N4858
*1459 NOR2_1782
*1460 N4859
*1461 NOR2_1783
*1462 N4683
*1463 NOR2_1735
*1464 NOR2_1734
*1465 NOR2_1707
*1466 N4854
*1467 NOR2_1781
*1468 N1011
*1469 AND2_157
*1470 N4793
*1471 NOR2_1758
*1472 N4849
*1473 N4850
*1474 N4781
*1475 NOR2_1753
*1476 N4784
*1477 NOR2_1754
*1478 N4837
*1479 NOR2_1773
*1480 N4838
*1481 NOR2_1774
*1482 N4662
*1483 NOR2_1726
*1484 NOR2_1725
*1485 NOR2_1698
*1486 N4833
*1487 NOR2_1772
*1488 N768
*1489 AND2_76
*1490 N4772
*1491 NOR2_1749
*1492 N4658
*1493 NOR2_1724
*1494 NOR2_1723
*1495 NOR2_1697
*1496 N4829
*1497 NOR2_1771
*1498 N720
*1499 AND2_60
*1500 N4769
*1501 NOR2_1748
*1502 N4654
*1503 NOR2_1722
*1504 NOR2_1721
*1505 NOR2_1696
*1506 N4825
*1507 NOR2_1770
*1508 N672
*1509 AND2_44
*1510 N4766
*1511 NOR2_1747
*1512 N4650
*1513 NOR2_1720
*1514 NOR2_1719
*1515 NOR2_1695
*1516 N4821
*1517 NOR2_1769
*1518 N624
*1519 AND2_28
*1520 N4763
*1521 NOR2_1746
*1522 N4646
*1523 NOR2_1718
*1524 NOR2_1717
*1525 NOR2_1694
*1526 N4817
*1527 NOR2_1768
*1528 N576
*1529 AND2_12
*1530 N4760
*1531 NOR2_1745
*1532 N4812
*1533 N4813
*1534 N4748
*1535 NOR2_1740
*1536 N4751
*1537 NOR2_1741
*1538 N4800
*1539 NOR2_1760
*1540 N4801
*1541 NOR2_1761
*1542 N4628
*1543 NOR2_1709
*1544 NOR2_1708
*1545 NOR2_1686
*1546 N4796
*1547 NOR2_1759
*1548 N1059
*1549 AND2_173
*1550 N4739
*1551 NOR2_1736
*1552 N4791
*1553 N4792
*1554 N4727
*1555 NOR2_1731
*1556 N4730
*1557 NOR2_1732
*1558 N4779
*1559 NOR2_1751
*1560 N4780
*1561 NOR2_1752
*1562 N4607
*1563 NOR2_1700
*1564 NOR2_1699
*1565 NOR2_1677
*1566 N4775
*1567 NOR2_1750
*1568 N816
*1569 AND2_92
*1570 N4718
*1571 NOR2_1727
*1572 N4758
*1573 N4759
*1574 N4698
*1575 NOR2_1714
*1576 N4701
*1577 NOR2_1715
*1578 N4746
*1579 NOR2_1738
*1580 N4747
*1581 NOR2_1739
*1582 N4578
*1583 NOR2_1688
*1584 NOR2_1687
*1585 NOR2_1666
*1586 N4742
*1587 NOR2_1737
*1588 N1107
*1589 AND2_189
*1590 N4689
*1591 NOR2_1710
*1592 N4737
*1593 N4738
*1594 N4677
*1595 NOR2_1705
*1596 N4680
*1597 NOR2_1706
*1598 N4725
*1599 NOR2_1729
*1600 N4726
*1601 NOR2_1730
*1602 N4557
*1603 NOR2_1679
*1604 NOR2_1678
*1605 NOR2_1657
*1606 N4721
*1607 NOR2_1728
*1608 N864
*1609 AND2_108
*1610 N4668
*1611 NOR2_1701
*1612 N4716
*1613 N4717
*1614 N4714
*1615 N4715
*1616 N4712
*1617 N4713
*1618 N4710
*1619 N4711
*1620 N4708
*1621 N4709
*1622 N4643
*1623 NOR2_1693
*1624 N1299
*1625 AND2_253
*1626 N4696
*1627 NOR2_1712
*1628 N4697
*1629 NOR2_1713
*1630 N4515
*1631 NOR2_1668
*1632 NOR2_1667
*1633 NOR2_1634
*1634 N4692
*1635 NOR2_1711
*1636 N1155
*1637 AND2_205
*1638 N4634
*1639 NOR2_1689
*1640 N4687
*1641 N4688
*1642 N4622
*1643 NOR2_1684
*1644 N4625
*1645 NOR2_1685
*1646 N4675
*1647 NOR2_1703
*1648 N4676
*1649 NOR2_1704
*1650 N4494
*1651 NOR2_1659
*1652 NOR2_1658
*1653 NOR2_1625
*1654 N4671
*1655 NOR2_1702
*1656 N912
*1657 AND2_124
*1658 N4613
*1659 NOR2_1680
*1660 N4666
*1661 N4667
*1662 N4546
*1663 NOR2_1652
*1664 N4604
*1665 NOR2_1676
*1666 N4541
*1667 NOR2_1649
*1668 N4601
*1669 NOR2_1675
*1670 N4536
*1671 NOR2_1646
*1672 N4598
*1673 NOR2_1674
*1674 N4531
*1675 NOR2_1643
*1676 N4595
*1677 NOR2_1673
*1678 N4526
*1679 NOR2_1640
*1680 N4592
*1681 NOR2_1672
*1682 N4641
*1683 NOR2_1691
*1684 N4642
*1685 NOR2_1692
*1686 N4456
*1687 NOR2_1636
*1688 NOR2_1635
*1689 NOR2_1612
*1690 N4637
*1691 NOR2_1690
*1692 N1203
*1693 AND2_221
*1694 N4584
*1695 NOR2_1669
*1696 N4632
*1697 N4633
*1698 N4572
*1699 NOR2_1664
*1700 N4575
*1701 NOR2_1665
*1702 N4620
*1703 NOR2_1682
*1704 N4621
*1705 NOR2_1683
*1706 N4435
*1707 NOR2_1627
*1708 NOR2_1626
*1709 NOR2_1603
*1710 N4616
*1711 NOR2_1681
*1712 N960
*1713 AND2_140
*1714 N4563
*1715 NOR2_1660
*1716 N4611
*1717 N4612
*1718 N4551
*1719 NOR2_1655
*1720 N4554
*1721 NOR2_1656
*1722 N4401
*1723 NOR2_1614
*1724 NOR2_1613
*1725 NOR2_1591
*1726 N4587
*1727 NOR2_1670
*1728 N1251
*1729 AND2_237
*1730 N4521
*1731 NOR2_1637
*1732 N4582
*1733 N4583
*1734 N4509
*1735 NOR2_1632
*1736 N4512
*1737 NOR2_1633
*1738 N4570
*1739 NOR2_1662
*1740 N4571
*1741 NOR2_1663
*1742 N4380
*1743 NOR2_1605
*1744 NOR2_1604
*1745 NOR2_1582
*1746 N4566
*1747 NOR2_1661
*1748 N1008
*1749 AND2_156
*1750 N4500
*1751 NOR2_1628
*1752 N4561
*1753 N4562
*1754 N4488
*1755 NOR2_1623
*1756 N4491
*1757 NOR2_1624
*1758 N4549
*1759 NOR2_1653
*1760 N4550
*1761 NOR2_1654
*1762 N4544
*1763 NOR2_1650
*1764 N4545
*1765 NOR2_1651
*1766 N4539
*1767 NOR2_1647
*1768 N4540
*1769 NOR2_1648
*1770 N4534
*1771 NOR2_1644
*1772 N4535
*1773 NOR2_1645
*1774 N4529
*1775 NOR2_1641
*1776 N4530
*1777 NOR2_1642
*1778 N4524
*1779 NOR2_1671
*1780 NOR2_1638
*1781 N4525
*1782 NOR2_1639
*1783 N4519
*1784 N4520
*1785 N4450
*1786 NOR2_1610
*1787 N4453
*1788 NOR2_1611
*1789 N4507
*1790 NOR2_1630
*1791 N4508
*1792 NOR2_1631
*1793 N4335
*1794 NOR2_1584
*1795 NOR2_1583
*1796 NOR2_1556
*1797 N4503
*1798 NOR2_1629
*1799 N1056
*1800 AND2_172
*1801 N4441
*1802 NOR2_1606
*1803 N4498
*1804 N4499
*1805 N4429
*1806 NOR2_1601
*1807 N4432
*1808 NOR2_1602
*1809 N4486
*1810 NOR2_1621
*1811 N4487
*1812 NOR2_1622
*1813 N4314
*1814 NOR2_1575
*1815 NOR2_1574
*1816 NOR2_1547
*1817 N4482
*1818 NOR2_1620
*1819 N813
*1820 AND2_91
*1821 N4420
*1822 NOR2_1597
*1823 N4310
*1824 NOR2_1573
*1825 NOR2_1572
*1826 NOR2_1546
*1827 N4478
*1828 NOR2_1619
*1829 N765
*1830 AND2_75
*1831 N4417
*1832 NOR2_1596
*1833 N4306
*1834 NOR2_1571
*1835 NOR2_1570
*1836 NOR2_1545
*1837 N4474
*1838 NOR2_1618
*1839 N717
*1840 AND2_59
*1841 N4414
*1842 NOR2_1595
*1843 N4302
*1844 NOR2_1569
*1845 NOR2_1568
*1846 NOR2_1544
*1847 N4470
*1848 NOR2_1617
*1849 N669
*1850 AND2_43
*1851 N4411
*1852 NOR2_1594
*1853 N4298
*1854 NOR2_1567
*1855 NOR2_1566
*1856 NOR2_1543
*1857 N4466
*1858 NOR2_1616
*1859 N621
*1860 AND2_27
*1861 N4408
*1862 NOR2_1593
*1863 N4294
*1864 NOR2_1565
*1865 NOR2_1564
*1866 NOR2_1542
*1867 N4462
*1868 NOR2_1615
*1869 N573
*1870 AND2_11
*1871 N4405
*1872 NOR2_1592
*1873 N4460
*1874 N4461
*1875 N4395
*1876 NOR2_1589
*1877 N4398
*1878 NOR2_1590
*1879 N4448
*1880 NOR2_1608
*1881 N4449
*1882 NOR2_1609
*1883 N4281
*1884 NOR2_1558
*1885 NOR2_1557
*1886 NOR2_1537
*1887 N4444
*1888 NOR2_1607
*1889 N1104
*1890 AND2_188
*1891 N4386
*1892 NOR2_1585
*1893 N4439
*1894 N4440
*1895 N4374
*1896 NOR2_1580
*1897 N4377
*1898 NOR2_1581
*1899 N4427
*1900 NOR2_1599
*1901 N4428
*1902 NOR2_1600
*1903 N4260
*1904 NOR2_1549
*1905 NOR2_1548
*1906 NOR2_1528
*1907 N4423
*1908 NOR2_1598
*1909 N861
*1910 AND2_107
*1911 N4365
*1912 NOR2_1576
*1913 N4350
*1914 NOR2_1563
*1915 N1296
*1916 AND2_252
*1917 N4393
*1918 NOR2_1587
*1919 N4394
*1920 NOR2_1588
*1921 N4232
*1922 NOR2_1539
*1923 NOR2_1538
*1924 NOR2_1517
*1925 N4389
*1926 NOR2_1586
*1927 N1152
*1928 AND2_204
*1929 N4341
*1930 NOR2_1559
*1931 N4384
*1932 N4385
*1933 N4329
*1934 NOR2_1554
*1935 N4332
*1936 NOR2_1555
*1937 N4372
*1938 NOR2_1578
*1939 N4373
*1940 NOR2_1579
*1941 N4211
*1942 NOR2_1530
*1943 NOR2_1529
*1944 NOR2_1508
*1945 N4368
*1946 NOR2_1577
*1947 N909
*1948 AND2_123
*1949 N4320
*1950 NOR2_1550
*1951 N4363
*1952 N4364
*1953 N4361
*1954 N4362
*1955 N4359
*1956 N4360
*1957 N4357
*1958 N4358
*1959 N4355
*1960 N4356
*1961 N4353
*1962 N4354
*1963 N4348
*1964 NOR2_1561
*1965 N4349
*1966 NOR2_1562
*1967 N4167
*1968 NOR2_1519
*1969 NOR2_1518
*1970 NOR2_1483
*1971 N4344
*1972 NOR2_1560
*1973 N1200
*1974 AND2_220
*1975 N4287
*1976 NOR2_1540
*1977 N4339
*1978 N4340
*1979 N4275
*1980 NOR2_1535
*1981 N4278
*1982 NOR2_1536
*1983 N4327
*1984 NOR2_1552
*1985 N4328
*1986 NOR2_1553
*1987 N4146
*1988 NOR2_1510
*1989 NOR2_1509
*1990 NOR2_1474
*1991 N4323
*1992 NOR2_1551
*1993 N957
*1994 AND2_139
*1995 N4266
*1996 NOR2_1531
*1997 N4318
*1998 N4319
*1999 N4200
*2000 NOR2_1503
*2001 N4257
*2002 NOR2_1527
*2003 N4195
*2004 NOR2_1500
*2005 N4254
*2006 NOR2_1526
*2007 N4190
*2008 NOR2_1497
*2009 N4251
*2010 NOR2_1525
*2011 N4185
*2012 NOR2_1494
*2013 N4248
*2014 NOR2_1524
*2015 N4180
*2016 NOR2_1491
*2017 N4245
*2018 NOR2_1523
*2019 N4175
*2020 NOR2_1488
*2021 N4242
*2022 NOR2_1522
*2023 N4106
*2024 NOR2_1485
*2025 NOR2_1484
*2026 NOR2_1462
*2027 N4290
*2028 NOR2_1541
*2029 N1248
*2030 AND2_236
*2031 N4238
*2032 NOR2_1520
*2033 N4285
*2034 N4286
*2035 N4226
*2036 NOR2_1515
*2037 N4229
*2038 NOR2_1516
*2039 N4273
*2040 NOR2_1533
*2041 N4274
*2042 NOR2_1534
*2043 N4085
*2044 NOR2_1476
*2045 NOR2_1475
*2046 NOR2_1453
*2047 N4269
*2048 NOR2_1532
*2049 N1005
*2050 AND2_155
*2051 N4217
*2052 NOR2_1511
*2053 N4264
*2054 N4265
*2055 N4205
*2056 NOR2_1506
*2057 N4208
*2058 NOR2_1507
*2059 N4236
*2060 N4237
*2061 N4161
*2062 NOR2_1481
*2063 N4164
*2064 NOR2_1482
*2065 N4224
*2066 NOR2_1513
*2067 N4225
*2068 NOR2_1514
*2069 N4034
*2070 NOR2_1455
*2071 NOR2_1454
*2072 NOR2_1433
*2073 N4220
*2074 NOR2_1512
*2075 N1053
*2076 AND2_171
*2077 N4152
*2078 NOR2_1477
*2079 N4215
*2080 N4216
*2081 N4140
*2082 NOR2_1472
*2083 N4143
*2084 NOR2_1473
*2085 N4203
*2086 NOR2_1504
*2087 N4204
*2088 NOR2_1505
*2089 N4198
*2090 NOR2_1501
*2091 N4199
*2092 NOR2_1502
*2093 N4193
*2094 NOR2_1498
*2095 N4194
*2096 NOR2_1499
*2097 N4188
*2098 NOR2_1495
*2099 N4189
*2100 NOR2_1496
*2101 N4183
*2102 NOR2_1492
*2103 N4184
*2104 NOR2_1493
*2105 N4178
*2106 NOR2_1489
*2107 N4179
*2108 NOR2_1490
*2109 N4173
*2110 NOR2_1521
*2111 NOR2_1486
*2112 N4174
*2113 NOR2_1487
*2114 N4171
*2115 N4172
*2116 N4100
*2117 NOR2_1460
*2118 N4103
*2119 NOR2_1461
*2120 N4159
*2121 NOR2_1479
*2122 N4160
*2123 NOR2_1480
*2124 N3992
*2125 NOR2_1435
*2126 NOR2_1434
*2127 NOR2_1408
*2128 N4155
*2129 NOR2_1478
*2130 N1101
*2131 AND2_187
*2132 N4091
*2133 NOR2_1456
*2134 N4150
*2135 N4151
*2136 N4079
*2137 NOR2_1451
*2138 N4082
*2139 NOR2_1452
*2140 N4138
*2141 NOR2_1470
*2142 N4139
*2143 NOR2_1471
*2144 N3971
*2145 NOR2_1426
*2146 NOR2_1425
*2147 NOR2_1399
*2148 N4134
*2149 NOR2_1469
*2150 N858
*2151 AND2_106
*2152 N4070
*2153 NOR2_1447
*2154 N3967
*2155 NOR2_1424
*2156 NOR2_1423
*2157 NOR2_1398
*2158 N4130
*2159 NOR2_1468
*2160 N810
*2161 AND2_90
*2162 N4067
*2163 NOR2_1446
*2164 N3963
*2165 NOR2_1422
*2166 NOR2_1421
*2167 NOR2_1397
*2168 N4126
*2169 NOR2_1467
*2170 N762
*2171 AND2_74
*2172 N4064
*2173 NOR2_1445
*2174 N3959
*2175 NOR2_1420
*2176 NOR2_1419
*2177 NOR2_1396
*2178 N4122
*2179 NOR2_1466
*2180 N714
*2181 AND2_58
*2182 N4061
*2183 NOR2_1444
*2184 N3955
*2185 NOR2_1418
*2186 NOR2_1417
*2187 NOR2_1395
*2188 N4118
*2189 NOR2_1465
*2190 N666
*2191 AND2_42
*2192 N4058
*2193 NOR2_1443
*2194 N3951
*2195 NOR2_1416
*2196 NOR2_1415
*2197 NOR2_1394
*2198 N4114
*2199 NOR2_1464
*2200 N618
*2201 AND2_26
*2202 N4055
*2203 NOR2_1442
*2204 N3947
*2205 NOR2_1414
*2206 NOR2_1413
*2207 NOR2_1393
*2208 N4110
*2209 NOR2_1463
*2210 N570
*2211 AND2_10
*2212 N4052
*2213 NOR2_1441
*2214 N4049
*2215 NOR2_1440
*2216 N1293
*2217 AND2_251
*2218 N4098
*2219 NOR2_1458
*2220 N4099
*2221 NOR2_1459
*2222 N3938
*2223 NOR2_1410