*SPEF "1481-1998"
*DESIGN "c7552"
*DATE "Wed Jul  2 15:19:13 2014"
*VENDOR "Synopsys, Inc."
*PROGRAM "icc_shell"
*VERSION "G-2012.06-ICC-SP5"
*DESIGN_FLOW "PIN_CAP NONE"
*DIVIDER /
*DELIMITER :
*BUS_DELIMITER [ ]
*T_UNIT 1 NS
*C_UNIT 1 FF
*R_UNIT 1 OHM
*L_UNIT 1 HENRY

*NAME_MAP
*1 N9
*2 N5
*3 N1
*4 VDD
*5 VSS
*6 N35
*7 N32
*8 N29
*9 N26
*10 N23
*11 N18
*12 N15
*13 N12
*14 N55
*15 N54
*16 N53
*17 N50
*18 N47
*19 N44
*20 N41
*21 N38
*22 N63
*23 N62
*24 N61
*25 N60
*26 N59
*27 N58
*28 N57
*29 N56
*30 N75
*31 N74
*32 N73
*33 N70
*34 N69
*35 N66
*36 N65
*37 N64
*38 N83
*39 N82
*40 N81
*41 N80
*42 N79
*43 N78
*44 N77
*45 N76
*46 N97
*47 N94
*48 N89
*49 N88
*50 N87
*51 N86
*52 N85
*53 N84
*54 N113
*55 N112
*56 N111
*57 N110
*58 N109
*59 N106
*60 N103
*61 N100
*62 N133
*63 N130
*64 N127
*65 N124
*66 N121
*67 N118
*68 N115
*69 N114
*70 N151
*71 N150
*72 N147
*73 N144
*74 N141
*75 N138
*76 N135
*77 N134
*78 N159
*79 N158
*80 N157
*81 N156
*82 N155
*83 N154
*84 N153
*85 N152
*86 N167
*87 N166
*88 N165
*89 N164
*90 N163
*91 N162
*92 N161
*93 N160
*94 N175
*95 N174
*96 N173
*97 N172
*98 N171
*99 N170
*100 N169
*101 N168
*102 N183
*103 N182
*104 N181
*105 N180
*106 N179
*107 N178
*108 N177
*109 N176
*110 N191
*111 N190
*112 N189
*113 N188
*114 N187
*115 N186
*116 N185
*117 N184
*118 N199
*119 N198
*120 N197
*121 N196
*122 N195
*123 N194
*124 N193
*125 N192
*126 N207
*127 N206
*128 N205
*129 N204
*130 N203
*131 N202
*132 N201
*133 N200
*134 N215
*135 N214
*136 N213
*137 N212
*138 N211
*139 N210
*140 N209
*141 N208
*142 N223
*143 N222
*144 N221
*145 N220
*146 N219
*147 N218
*148 N217
*149 N216
*150 N231
*151 N230
*152 N229
*153 N228
*154 N227
*155 N226
*156 N225
*157 N224
*158 N239
*159 N238
*160 N237
*161 N236
*162 N235
*163 N234
*164 N233
*165 N232
*166 N260
*167 N257
*168 N254
*169 N251
*170 N248
*171 N245
*172 N242
*173 N240
*174 N286
*175 N283
*176 N280
*177 N277
*178 N274
*179 N271
*180 N267
*181 N263
*182 N313
*183 N310
*184 N307
*185 N303
*186 N299
*187 N296
*188 N293
*189 N289
*190 N337
*191 N334
*192 N331
*193 N328
*194 N325
*195 N322
*196 N319
*197 N316
*198 N361
*199 N358
*200 N355
*201 N352
*202 N349
*203 N346
*204 N343
*205 N340
*206 N482
*207 N478
*208 N388
*209 N387
*210 N241_I
*211 N382
*212 N367
*213 N364
*214 N509
*215 N507
*216 N505
*217 N501
*218 N492
*219 N489
*220 N486
*221 N484
*222 N539
*223 N537
*224 N535
*225 N519
*226 N517
*227 N515
*228 N513
*229 N511
*230 N556
*231 N553
*232 N551
*233 N549
*234 N547
*235 N545
*236 N543
*237 N541
*238 N573
*239 N571
*240 N569
*241 N567
*242 N565
*243 N563
*244 N561
*245 N559
*246 N884
*247 N883
*248 N882
*249 N881
*250 N813
*251 N707
*252 N643
*253 N582
*254 N1114
*255 N1113
*256 N1112
*257 N1111
*258 N1110
*259 N945
*260 N889
*261 N885
*262 N10104
*263 N10103
*264 N10102
*265 N10101
*266 N10025
*267 N1781
*268 N1490
*269 N1489
*270 N10353
*271 N10352
*272 N10351
*273 N10350
*274 N10112
*275 N10111
*276 N10110
*277 N10109
*278 N10706
*279 N10704
*280 N10641
*281 N10632
*282 N10628
*283 N10576
*284 N10575
*285 N10574
*286 N10718
*287 N10717
*288 N10716
*289 N10715
*290 N10714
*291 N10713
*292 N10712
*293 N10711
*294 N10837
*295 N10827
*296 N10763
*297 N10762
*298 N10761
*299 N10760
*300 N10759
*301 N10729
*302 N10905
*303 N10871
*304 N10870
*305 N10869
*306 N10868
*307 N10840
*308 N10839
*309 N10838
*310 N241_O
*311 N11342
*312 N11340
*313 N11334
*314 N11333
*315 N10908
*316 N10907
*317 N10906
*318 BUFF1_3513
*319 N11341
*320 NOT1_3512
*321 NAND2_3511
*322 N11336
*323 NAND2_3506
*324 N11339
*325 NAND2_3509
*326 N11338
*327 NOT1_3510
*328 NAND2_3508
*329 N11252
*330 NOT1_3470
*331 OR4_3452
*332 N11337
*333 NOT1_3507
*334 N11329
*335 NAND2_3501
*336 N11335
*337 NAND2_3505
*338 N11323
*339 OR2_3498
*340 N11283
*341 N11257
*342 NOT1_3473
*343 OR4_3453
*344 N11331
*345 NOT1_3502
*346 N11328
*347 NOT1_3504
*348 NAND2_3500
*349 N11327
*350 NOT1_3503
*351 NAND2_3499
*352 N11317
*353 OR2_3495
*354 N11286
*355 N11313
*356 NAND2_3491
*357 N11321
*358 NAND2_3497
*359 N11312
*360 NAND2_3490
*361 N11320
*362 NAND2_3496
*363 N11308
*364 AND2_3488
*365 N11316
*366 AND2_3494
*367 N10739
*368 NOT1_3236
*369 OR4_3183
*370 N11314
*371 NOT1_3492
*372 N11205
*373 NOT1_3450
*374 OR4_3421
*375 N11315
*376 NOT1_3493
*377 N11309
*378 AND2_3489
*379 N11298
*380 AND2_3484
*381 N750
*382 AND3_3436
*383 AND3_3435
*384 NOT1_145
*385 BUFF1_85
*386 N11307
*387 NAND2_3487
*388 N11302
*389 OR2_3486
*390 N11299
*391 OR2_3485
*392 N10836
*393 N11246
*394 N11297
*395 NOT1_3483
*396 N10497
*397 AND3_3438
*398 AND3_3437
*399 NOT1_3048
*400 N11296
*401 NOT1_3482
*402 N1218
*403 AND3_3434
*404 AND3_3433
*405 N11295
*406 NAND2_3481
*407 N11291
*408 NAND2_3477
*409 N11289
*410 AND2_3475
*411 N11280
*412 AND2_3468
*413 N11288
*414 AND2_3474
*415 N11278
*416 AND2_3466
*417 N10301
*418 AND3_3440
*419 AND3_3439
*420 OR2_2982
*421 N11293
*422 NAND2_3479
*423 N11294
*424 NAND2_3480
*425 N11292
*426 NAND2_3478
*427 N8711
*428 NOT1_2493
*429 BUFF1_2306
*430 N11290
*431 NOT1_3476
*432 N11285
*433 NAND2_3472
*434 N11270
*435 NAND2_3463
*436 N11284
*437 NAND2_3471
*438 N11268
*439 NAND2_3461
*440 N11282
*441 NAND2_3469
*442 N11265
*443 NAND2_3459
*444 N11272
*445 NAND2_3464
*446 N9321
*447 N11279
*448 NOT1_3467
*449 N10283
*450 AND3_3403
*451 AND3_3402
*452 NOT1_2969
*453 N11277
*454 NOT1_3465
*455 N10479
*456 AND3_3132
*457 AND3_3131
*458 NOT1_3047
*459 N8796
*460 NOT1_2523
*461 BUFF1_2339
*462 N11269
*463 NOT1_3462
*464 N8793
*465 NOT1_2522
*466 BUFF1_2338
*467 N11267
*468 NOT1_3460
*469 N8714
*470 NOT1_2494
*471 BUFF1_2307
*472 N11264
*473 NOT1_3458
*474 N10119
*475 AND3_3405
*476 AND3_3404
*477 OR3_2893
*478 N11262
*479 NAND2_3456
*480 N11263
*481 NAND2_3457
*482 N10273
*483 AND3_3101
*484 AND3_3100
*485 BUFF1_2963
*486 N11260
*487 NAND2_3454
*488 N11261
*489 NAND2_3455
*490 N11250
*491 NAND2_3451
*492 N11232
*493 NAND2_3442
*494 N11239
*495 NAND2_3445
*496 N9384
*497 N11236
*498 NAND2_3444
*499 N9383
*500 N11233
*501 NAND2_3443
*502 N9322
*503 N11245
*504 NAND2_3449
*505 N11220
*506 NAND2_3432
*507 N11244
*508 NAND2_3448
*509 N11218
*510 NAND2_3430
*511 N11243
*512 NAND2_3447
*513 N11216
*514 NAND2_3428
*515 N11242
*516 NAND2_3446
*517 N11214
*518 NAND2_3426
*519 N11226
*520 N11227
*521 N11228
*522 N11229
*523 N11222
*524 N11223
*525 N11224
*526 N11225
*527 N8708
*528 NOT1_2565
*529 BUFF1_2305
*530 N11231
*531 NOT1_3441
*532 N7518
*533 NOT1_2085
*534 BUFF1_1984
*535 N11219
*536 NOT1_3431
*537 N7515
*538 NOT1_2084
*539 BUFF1_1983
*540 N11217
*541 NOT1_3429
*542 N7462
*543 NOT1_2066
*544 BUFF1_1964
*545 N11215
*546 NOT1_3427
*547 N7459
*548 NOT1_2065
*549 BUFF1_1963
*550 N11213
*551 NOT1_3425
*552 N11212
*553 NAND2_3424
*554 N11188
*555 NAND2_3420
*556 N11211
*557 NAND2_3423
*558 N11186
*559 NAND2_3418
*560 N11210
*561 NAND2_3422
*562 N11184
*563 NAND2_3416
*564 N11180
*565 NAND2_3414
*566 N9467
*567 N11162
*568 NAND2_3408
*569 N10160
*570 NOT1_2913
*571 N11165
*572 NAND2_3409
*573 N9949
*574 AND2_2788
*575 N9001
*576 AND2_2632
*577 NOT1_2631
*578 OR5_2388
*579 N9608
*580 N11156
*581 NAND2_3406
*582 N10132
*583 NOT1_2897
*584 N11159
*585 NAND2_3407
*586 N9935
*587 AND2_2781
*588 N8927
*589 AND2_2612
*590 NOT1_2611
*591 OR5_2375
*592 N9575
*593 AND2_2780
*594 N11177
*595 NAND2_3413
*596 N8297
*597 N11174
*598 NAND2_3412
*599 N8296
*600 N11171
*601 NAND2_3411
*602 N8261
*603 N11168
*604 NAND2_3410
*605 N8260
*606 N8808
*607 NOT1_2583
*608 BUFF1_2343
*609 N11187
*610 NOT1_3419
*611 N8790
*612 NOT1_2582
*613 BUFF1_2337
*614 N11185
*615 NOT1_3417
*616 N8724
*617 NOT1_2566
*618 BUFF1_2311
*619 N11183
*620 NOT1_3415
*621 N11152
*622 N11153
*623 N11154
*624 N11155
*625 N11130
*626 NAND2_3392
*627 N9509
*628 N11127
*629 NAND2_3391
*630 N9508
*631 N11124
*632 NAND2_3390
*633 N9468
*634 N11145
*635 NAND2_3401
*636 N11123
*637 NAND2_3389
*638 N11144
*639 NAND2_3400
*640 N11121
*641 NAND2_3387
*642 N11143
*643 NAND2_3399
*644 N11119
*645 NAND2_3385
*646 N11142
*647 NAND2_3398
*648 N11117
*649 NAND2_3383
*650 N11141
*651 NAND2_3397
*652 N11115
*653 NAND2_3381
*654 N11140
*655 NAND2_3396
*656 N11113
*657 NAND2_3379
*658 N11139
*659 NAND2_3395
*660 N11111
*661 NAND2_3377
*662 N11138
*663 NAND2_3394
*664 N11109
*665 NAND2_3375
*666 N11137
*667 NAND2_3393
*668 N11107
*669 NAND2_3373
*670 N11100
*671 NAND2_3370
*672 N9917
*673 NOT1_2776
*674 N11103
*675 NAND2_3371
*676 N9551
*677 AND2_2595
*678 N7655
*679 AND2_2359
*680 NOT1_2358
*681 OR5_2021
*682 N8871
*683 N8705
*684 NOT1_2564
*685 BUFF1_2304
*686 N11122
*687 NOT1_3388
*688 N7530
*689 NOT1_2285
*690 BUFF1_1988
*691 N11120
*692 NOT1_3386
*693 N7512
*694 NOT1_2284
*695 BUFF1_1982
*696 N11118
*697 NOT1_3384
*698 N7474
*699 NOT1_2270
*700 BUFF1_1968
*701 N11116
*702 NOT1_3382
*703 N7456
*704 NOT1_2269
*705 BUFF1_1962
*706 N11114
*707 NOT1_3380
*708 N8778
*709 NOT1_2521
*710 BUFF1_2333
*711 N11112
*712 NOT1_3378
*713 N8766
*714 NOT1_2520
*715 BUFF1_2329
*716 N11110
*717 NOT1_3376
*718 N8699
*719 NOT1_2492
*720 BUFF1_2302
*721 N11108
*722 NOT1_3374
*723 N8687
*724 NOT1_2491
*725 BUFF1_2298
*726 N11106
*727 NOT1_3372
*728 N11099
*729 NAND2_3369
*730 N11076
*731 NAND2_3364
*732 N11098
*733 NAND2_3368
*734 N11074
*735 NAND2_3362
*736 N11095
*737 NAND2_3367
*738 N11066
*739 NAND2_3358
*740 N11062
*741 NAND2_3356
*742 N9466
*743 N11053
*744 NAND2_3353
*745 N8648
*746 N11050
*747 NAND2_3352
*748 N8647
*749 N11047
*750 NAND2_3351
*751 N8619
*752 N11044
*753 NAND2_3350
*754 N8618
*755 N11070
*756 NAND2_3360
*757 N9382
*758 N11067
*759 NAND2_3359
*760 N9381
*761 N11059
*762 NAND2_3355
*763 N9320
*764 N11056
*765 NAND2_3354
*766 N9319
*767 N11078
*768 NAND2_3366
*769 N11043
*770 NAND2_3349
*771 N11077
*772 NAND2_3365
*773 N11041
*774 NAND2_3347
*775 N8805
*776 NOT1_2586
*777 BUFF1_2342
*778 N11075
*779 NOT1_3363
*780 N8787
*781 NOT1_2581
*782 BUFF1_2336
*783 N11073
*784 NOT1_3361
*785 N8721
*786 NOT1_2569
*787 BUFF1_2310
*788 N11065
*789 NOT1_3357
*790 N7500
*791 NOT1_2083
*792 BUFF1_1978
*793 N11042
*794 NOT1_3348
*795 N7488
*796 NOT1_2082
*797 BUFF1_1974
*798 N11040
*799 NOT1_3346
*800 N11018
*801 NAND2_3336
*802 N9516
*803 N11015
*804 NAND2_3335
*805 N9507
*806 N11035
*807 NAND2_3345
*808 N11014
*809 NAND2_3334
*810 N11034
*811 NAND2_3344
*812 N11012
*813 NAND2_3332
*814 N11008
*815 NAND2_3330
*816 N9477
*817 N11031
*818 NAND2_3343
*819 N11007
*820 NAND2_3329
*821 N11030
*822 NAND2_3342
*823 N11005
*824 NAND2_3327
*825 N11029
*826 NAND2_3341
*827 N11003
*828 NAND2_3325
*829 N11028
*830 NAND2_3340
*831 N11001
*832 NAND2_3323
*833 N11027
*834 NAND2_3339
*835 N10999
*836 NAND2_3321
*837 N11024
*838 NAND2_3338
*839 N10991
*840 NAND2_3317
*841 N11023
*842 NAND2_3337
*843 N10989
*844 NAND2_3315
*845 N10995
*846 NAND2_3319
*847 N8295
*848 N10992
*849 NAND2_3318
*850 N8294
*851 N8775
*852 NOT1_2578
*853 BUFF1_2332
*854 N11013
*855 NOT1_3333
*856 N8763
*857 NOT1_2575
*858 BUFF1_2328
*859 N11011
*860 NOT1_3331
*861 N8702
*862 NOT1_2563
*863 BUFF1_2303
*864 N11006
*865 NOT1_3328
*866 N8696
*867 NOT1_2561
*868 BUFF1_2301
*869 N11004
*870 NOT1_3326
*871 N8684
*872 NOT1_2558
*873 BUFF1_2297
*874 N11002
*875 NOT1_3324
*876 N7527
*877 NOT1_2288
*878 BUFF1_1987
*879 N11000
*880 NOT1_3322
*881 N7509
*882 NOT1_2283
*883 BUFF1_1981
*884 N10998
*885 NOT1_3320
*886 N7471
*887 NOT1_2273
*888 BUFF1_1967
*889 N10990
*890 NOT1_3316
*891 N7453
*892 NOT1_2268
*893 BUFF1_1961
*894 N10988
*895 NOT1_3314
*896 N10987
*897 NAND2_3313
*898 N10964
*899 NAND2_3308
*900 N10986
*901 NAND2_3312
*902 N10962
*903 NAND2_3306
*904 N10958
*905 NAND2_3304
*906 N9500
*907 N10955
*908 NAND2_3303
*909 N9495
*910 N10981
*911 NAND2_3311
*912 N10954
*913 NAND2_3302
*914 N10950
*915 NAND2_3300
*916 N9465
*917 N10947
*918 NAND2_3299
*919 N9461
*920 N10944
*921 NAND2_3298
*922 N9456
*923 N10941
*924 NAND2_3297
*925 N8655
*926 N10938
*927 NAND2_3296
*928 N8646
*929 N10970
*930 NAND2_3310
*931 N10937
*932 NAND2_3295
*933 N10969
*934 NAND2_3309
*935 N10935
*936 NAND2_3293
*937 N10931
*938 NAND2_3291
*939 N8626
*940 N10928
*941 NAND2_3290
*942 N8617
*943 N8802
*944 NOT1_2585
*945 BUFF1_2341
*946 N10963
*947 NOT1_3307
*948 N8784
*949 NOT1_2580
*950 BUFF1_2335
*951 N10961
*952 NOT1_3305
*953 N8718
*954 NOT1_2568
*955 BUFF1_2309
*956 N10953
*957 NOT1_3301
*958 N7497
*959 NOT1_2280
*960 BUFF1_1977
*961 N10936
*962 NOT1_3294
*963 N7485
*964 NOT1_2277
*965 BUFF1_1973
*966 N10934
*967 NOT1_3292
*968 N10902
*969 NAND2_3276
*970 N9515
*971 N10899
*972 NAND2_3275
*973 N9506
*974 N10923
*975 NAND2_3289
*976 N10898
*977 NAND2_3274
*978 N10922
*979 NAND2_3288
*980 N10896
*981 NAND2_3272
*982 N10892
*983 NAND2_3270
*984 N9476
*985 N10919
*986 NAND2_3287
*987 N10891
*988 NAND2_3269
*989 N10918
*990 NAND2_3286
*991 N10889
*992 NAND2_3267
*993 N10917
*994 NAND2_3285
*995 N10887
*996 NAND2_3265
*997 N10916
*998 NAND2_3284
*999 N10885
*1000 NAND2_3263
*1001 N10915
*1002 NAND2_3283
*1003 N10883
*1004 NAND2_3261
*1005 N10879
*1006 NAND2_3259
*1007 N8639
*1008 N10876
*1009 NAND2_3258
*1010 N8634
*1011 N10910
*1012 NAND2_3282
*1013 N10875
*1014 NAND2_3257
*1015 N10909
*1016 NAND2_3281
*1017 N10873
*1018 NAND2_3255
*1019 N8772
*1020 NOT1_2577
*1021 BUFF1_2331
*1022 N10897
*1023 NOT1_3273
*1024 N8760
*1025 NOT1_2574
*1026 BUFF1_2327
*1027 N10895
*1028 NOT1_3271
*1029 N9462
*1030 NOT1_2749
*1031 BUFF1_2562
*1032 N10890
*1033 NOT1_3268
*1034 N8693
*1035 NOT1_2560
*1036 BUFF1_2300
*1037 N10888
*1038 NOT1_3266
*1039 N8681
*1040 NOT1_2557
*1041 BUFF1_2296
*1042 N10886
*1043 NOT1_3264
*1044 N7524
*1045 NOT1_2287
*1046 BUFF1_1986
*1047 N10884
*1048 NOT1_3262
*1049 N7506
*1050 NOT1_2282
*1051 BUFF1_1980
*1052 N10882
*1053 NOT1_3260
*1054 N7468
*1055 NOT1_2272
*1056 BUFF1_1966
*1057 N10874
*1058 NOT1_3256
*1059 N7450
*1060 NOT1_2267
*1061 BUFF1_1960
*1062 N10872
*1063 NOT1_3254
*1064 N10867
*1065 OR2_3280
*1066 AND2_3249
*1067 N10768
*1068 AND2_3200
*1069 N10866
*1070 OR2_3279
*1071 AND2_3248
*1072 N10767
*1073 AND2_3199
*1074 N10865
*1075 OR2_3278
*1076 AND2_3247
*1077 N10766
*1078 AND2_3198
*1079 N10864
*1080 OR2_3277
*1081 AND2_3246
*1082 N10765
*1083 AND2_3197
*1084 N10863
*1085 NAND2_3245
*1086 N10826
*1087 NAND2_3230
*1088 N10862
*1089 NAND2_3244
*1090 N10824
*1091 NAND2_3228
*1092 N10820
*1093 NAND2_3226
*1094 N9499
*1095 N10817
*1096 NAND2_3225
*1097 N9494
*1098 N10857
*1099 NAND2_3243
*1100 N10816
*1101 NAND2_3224
*1102 N10812
*1103 NAND2_3222
*1104 N9862
*1105 N10809
*1106 NAND2_3221
*1107 N9460
*1108 N10806
*1109 NAND2_3220
*1110 N9455
*1111 N10803
*1112 NAND2_3219
*1113 N8654
*1114 N10800
*1115 NAND2_3218
*1116 N8645
*1117 N10846
*1118 NAND2_3242
*1119 N10799
*1120 NAND2_3217
*1121 N10845
*1122 NAND2_3241
*1123 N10797
*1124 NAND2_3215
*1125 N10792
*1126 NAND2_3213
*1127 N8625
*1128 N10789
*1129 NAND2_3212
*1130 N8616
*1131 N10835
*1132 NAND2_3253
*1133 NAND2_3235
*1134 N10776
*1135 NAND2_3208
*1136 N10834
*1137 NAND2_3252
*1138 NAND2_3234
*1139 N10774
*1140 NAND2_3206
*1141 N10833
*1142 NAND2_3251
*1143 NAND2_3233
*1144 N10772
*1145 NAND2_3204
*1146 N10832
*1147 NAND2_3250
*1148 NAND2_3232
*1149 N10770
*1150 NAND2_3202
*1151 N7136
*1152 AND2_2168
*1153 AND3_2164
*1154 AND4_2158
*1155 NOT1_2062
*1156 NAND2_1892
*1157 N10784
*1158 NOT1_3211
*1159 N9739
*1160 NAND2_2696
*1161 N10024
*1162 NOT1_2838
*1163 N10023
*1164 NOT1_2837
*1165 N8799
*1166 NOT1_2584
*1167 BUFF1_2340
*1168 N10825
*1169 NOT1_3229
*1170 N8781
*1171 NOT1_2579
*1172 BUFF1_2334
*1173 N10823
*1174 NOT1_3227
*1175 N9473
*1176 NOT1_2751
*1177 BUFF1_2567
*1178 N10815
*1179 NOT1_3223
*1180 N7494
*1181 NOT1_2279
*1182 BUFF1_1976
*1183 N10798
*1184 NOT1_3216
*1185 N7482
*1186 NOT1_2276
*1187 BUFF1_1972
*1188 N10796
*1189 NOT1_3214
*1190 N10781
*1191 BUFF1_3240
*1192 BUFF1_3239
*1193 OR2_3210
*1194 N10778
*1195 BUFF1_3238
*1196 BUFF1_3237
*1197 OR2_3209
*1198 N8592
*1199 NOT1_2453
*1200 BUFF1_2257
*1201 N10775
*1202 NOT1_3207
*1203 N8589
*1204 NOT1_2452
*1205 BUFF1_2256
*1206 N10773
*1207 NOT1_3205
*1208 N8586
*1209 NOT1_2451
*1210 BUFF1_2255
*1211 N10771
*1212 NOT1_3203
*1213 N8583
*1214 NOT1_2450
*1215 BUFF1_2254
*1216 N10769
*1217 NOT1_3201
*1218 N10764
*1219 NAND2_3231
*1220 NAND2_3196
*1221 N10720
*1222 NAND2_3177
*1223 N10701
*1224 NAND2_3160
*1225 N9514
*1226 N10698
*1227 NAND2_3159
*1228 N9505
*1229 N10754
*1230 NAND2_3190
*1231 N10697
*1232 NAND2_3158
*1233 N10753
*1234 NAND2_3189
*1235 N10695
*1236 NAND2_3156
*1237 N10691
*1238 NAND2_3154
*1239 N9866
*1240 N10750
*1241 NAND2_3188
*1242 N10690
*1243 NAND2_3153
*1244 N10749
*1245 NAND2_3187
*1246 N10688
*1247 NAND2_3151
*1248 N10748
*1249 NAND2_3186
*1250 N10686
*1251 NAND2_3149
*1252 N10747
*1253 NAND2_3185
*1254 N10684
*1255 NAND2_3147
*1256 N10746
*1257 NAND2_3184
*1258 N10682
*1259 NAND2_3145
*1260 N10678
*1261 NAND2_3143
*1262 N8638
*1263 N10675
*1264 NAND2_3142
*1265 N8633
*1266 N10738
*1267 NAND2_3182
*1268 N10674
*1269 NAND2_3141
*1270 N10737
*1271 NAND2_3181
*1272 N10672
*1273 NAND2_3139
*1274 N10652
*1275 OR2_3133
*1276 N10731
*1277 AND2_3180
*1278 N10588
*1279 AND2_3104
*1280 N10730
*1281 AND2_3179
*1282 N10587
*1283 AND2_3103
*1284 N10668
*1285 OR2_3137
*1286 N9248
*1287 N10665
*1288 OR3_3136
*1289 N9247
*1290 N10662
*1291 OR4_3135
*1292 N9246
*1293 N10659
*1294 OR5_3134
*1295 N9245
*1296 N8252
*1297 N9892
*1298 NOT1_2756
*1299 N9891
*1300 NAND2_2755
*1301 N9890
*1302 NAND2_2754
*1303 N8580
*1304 NOT1_2449
*1305 BUFF1_2253
*1306 N10719
*1307 NOT1_3176
*1308 N10710
*1309 OR2_3195
*1310 AND2_3167
*1311 N10556
*1312 AND2_3078
*1313 N10709
*1314 OR2_3194
*1315 AND2_3166
*1316 N10555
*1317 AND2_3077
*1318 N10708
*1319 OR2_3193
*1320 AND2_3165
*1321 N10554
*1322 AND2_3076
*1323 N10707
*1324 OR2_3192
*1325 AND2_3164
*1326 N10553
*1327 AND2_3075
*1328 N10705
*1329 OR2_3191
*1330 AND2_3162
*1331 N10549
*1332 AND2_3071
*1333 N8769
*1334 NOT1_2576
*1335 BUFF1_2330
*1336 N10696
*1337 NOT1_3157
*1338 N8757
*1339 NOT1_2573
*1340 BUFF1_2326
*1341 N10694
*1342 NOT1_3155
*1343 N9685
*1344 NOT1_2810
*1345 OR5_2669
*1346 N10689
*1347 NOT1_3152
*1348 N8690
*1349 NOT1_2559
*1350 BUFF1_2299
*1351 N10687
*1352 NOT1_3150
*1353 N8678
*1354 NOT1_2556
*1355 BUFF1_2295
*1356 N10685
*1357 NOT1_3148
*1358 N7521
*1359 NOT1_2286
*1360 BUFF1_1985
*1361 N10683
*1362 NOT1_3146
*1363 N7503
*1364 NOT1_2281
*1365 BUFF1_1979
*1366 N10681
*1367 NOT1_3144
*1368 N10648
*1369 N10649
*1370 N10581
*1371 N10582
*1372 N7465
*1373 NOT1_2271
*1374 BUFF1_1965
*1375 N10673
*1376 NOT1_3140
*1377 N7447
*1378 NOT1_2266
*1379 BUFF1_1959
*1380 N10671
*1381 NOT1_3138
*1382 N2533
*1383 AND2_692
*1384 NOT1_686
*1385 NAND2_559
*1386 N10583
*1387 NOT1_3102
*1388 N5178
*1389 NAND2_1289
*1390 N10647
*1391 NOT1_3178
*1392 AND3_3130
*1393 N10602
*1394 BUFF1_3111
*1395 N9244
*1396 N10645
*1397 NAND2_3175
*1398 NAND2_3129
*1399 N10573
*1400 NAND2_3095
*1401 N10644
*1402 NAND2_3174
*1403 NAND2_3128
*1404 N10571
*1405 NAND2_3093
*1406 N10643
*1407 NAND2_3173
*1408 NAND2_3127
*1409 N10569
*1410 NAND2_3091
*1411 N10642
*1412 NAND2_3172
*1413 NAND2_3126
*1414 N10567
*1415 NAND2_3089
*1416 N10640
*1417 NAND2_3171
*1418 NAND2_3124
*1419 N10564
*1420 NAND2_3086
*1421 N10639
*1422 NAND2_3170
*1423 NAND2_3123
*1424 N10562
*1425 NAND2_3084
*1426 N10638
*1427 NAND2_3169
*1428 NAND2_3122
*1429 N10560
*1430 NAND2_3082
*1431 N10637
*1432 NAND2_3168
*1433 NAND2_3121
*1434 N10558
*1435 NAND2_3080
*1436 N5892
*1437 AND2_1832
*1438 AND3_1828
*1439 AND4_1822
*1440 NOT1_1749
*1441 NAND2_1424
*1442 N10589
*1443 NOT1_3105
*1444 N9243
*1445 NAND2_2448
*1446 N9738
*1447 NOT1_2695
*1448 N9737
*1449 NOT1_2694
*1450 N10631
*1451 OR2_3163
*1452 AND2_3119
*1453 N10551
*1454 AND2_3073
*1455 N3159
*1456 OR2_2446
*1457 NOT1_954
*1458 OR2_693
*1459 N10629
*1460 OR2_3161
*1461 AND2_3118
*1462 N10548
*1463 AND2_3070
*1464 N10627
*1465 NAND2_3116
*1466 N10545
*1467 NAND2_3067
*1468 N10626
*1469 NAND2_3115
*1470 N10543
*1471 NAND2_3065
*1472 N10539
*1473 NAND2_3063
*1474 N9498
*1475 N10536
*1476 NAND2_3062
*1477 N9493
*1478 N10621
*1479 NAND2_3114
*1480 N10535
*1481 NAND2_3061
*1482 N10531
*1483 NAND2_3059
*1484 N9978
*1485 N10528
*1486 NAND2_3058
*1487 N9459
*1488 N10525
*1489 NAND2_3057
*1490 N9454
*1491 N10522
*1492 NAND2_3056
*1493 N8653
*1494 N10519
*1495 NAND2_3055
*1496 N8644
*1497 N10610
*1498 NAND2_3113
*1499 N10518
*1500 NAND2_3054
*1501 N10609
*1502 NAND2_3112
*1503 N10516
*1504 NAND2_3052
*1505 N10512
*1506 NAND2_3050
*1507 N8624
*1508 N10509
*1509 NAND2_3049
*1510 N8615
*1511 N4687
*1512 AND2_2180
*1513 AND3_2179
*1514 AND4_2177
*1515 AND5_2174_A
*1516 AND2_1081
*1517 N10597
*1518 AND2_3109
*1519 N4682
*1520 AND2_2178
*1521 AND3_2176
*1522 AND4_2173
*1523 AND2_1080
*1524 N8456
*1525 N10596
*1526 AND3_3108
*1527 N4678
*1528 AND2_2175
*1529 AND3_2172
*1530 AND2_1079
*1531 N8454
*1532 N8455
*1533 N10595
*1534 AND4_3107
*1535 extra59
*1536 OR5_3134_A
*1537 N10594
*1538 AND5_3106
*1539 N4675
*1540 AND2_2171
*1541 AND2_1078
*1542 N8451
*1543 N8452
*1544 N8453
*1545 N8966
*1546 AND2_2616
*1547 OR5_2383
*1548 N10598
*1549 AND2_3110
*1550 N10357
*1551 NAND2_3015
*1552 N7609
*1553 NOT1_2351
*1554 AND2_2350
*1555 OR5_2016
*1556 N10360
*1557 NAND2_3016
*1558 N8857
*1559 AND2_3014
*1560 AND2_2594
*1561 N886
*1562 AND2_113
*1563 N887
*1564 AND2_114
*1565 N10577
*1566 AND3_3099
*1567 N7438
*1568 NOT1_2061
*1569 BUFF1_1956
*1570 N10572
*1571 NOT1_3094
*1572 N7435
*1573 NOT1_2060
*1574 BUFF1_1955
*1575 N10570
*1576 NOT1_3092
*1577 N7432
*1578 NOT1_2059
*1579 BUFF1_1954
*1580 N10568
*1581 NOT1_3090
*1582 N7429
*1583 NOT1_2058
*1584 BUFF1_1953
*1585 N10566
*1586 NOT1_3088
*1587 N10565
*1588 NAND2_3125
*1589 NAND2_3087
*1590 N10466
*1591 NAND2_3046
*1592 N7423
*1593 NOT1_2056
*1594 BUFF1_1951
*1595 N10563
*1596 NOT1_3085
*1597 N7420
*1598 NOT1_2055
*1599 BUFF1_1950
*1600 N10561
*1601 NOT1_3083
*1602 N7417
*1603 NOT1_2054
*1604 BUFF1_1949
*1605 N10559
*1606 NOT1_3081
*1607 N7414
*1608 NOT1_2053
*1609 BUFF1_1948
*1610 N10557
*1611 NOT1_3079
*1612 N10552
*1613 NAND2_3120
*1614 NAND2_3074
*1615 N10456
*1616 NAND2_3044
*1617 N5166
*1618 NAND2_1277
*1619 N10550
*1620 NOT1_3072
*1621 N9733
*1622 NAND2_2690
*1623 N10547
*1624 NOT1_3069
*1625 N10546
*1626 OR2_3117
*1627 AND2_3068
*1628 N10451
*1629 AND2_3042
*1630 N9223
*1631 NOT1_2687
*1632 NOR4_2441
*1633 N10544
*1634 NOT1_3066
*1635 N9206
*1636 NOT1_2683
*1637 OR5_2439
*1638 N10542
*1639 NOT1_3064
*1640 N9149
*1641 NOT1_2673
*1642 NOR4_2425
*1643 N10534
*1644 NOT1_3060
*1645 N7491
*1646 NOT1_2278
*1647 BUFF1_1975
*1648 N10517
*1649 NOT1_3053
*1650 N7479
*1651 NOT1_2275
*1652 BUFF1_1971
*1653 N10515
*1654 NOT1_3051
*1655 N10381
*1656 AND5_3106_A
*1657 OR2_3019
*1658 N8444
*1659 AND2_2500
*1660 AND5_2170
*1661 N7180
*1662 AND5_2170_A
*1663 NAND2_1897
*1664 N7170
*1665 NAND2_1896
*1666 N7159
*1667 NAND2_1895
*1668 extra58
*1669 N7149
*1670 NAND2_1894
*1671 AND5_2174
*1672 N10375
*1673 OR2_3018
*1674 N10367
*1675 OR2_3017
*1676 N3135
*1677 N5735
*1678 NOT1_1400
*1679 N9905
*1680 NOT1_2769
*1681 N9543
*1682 N10399
*1683 NOT1_3096
*1684 AND4_3022
*1685 N10402
*1686 NOT1_3097
*1687 AND4_3023
*1688 N10388
*1689 NOT1_3098
*1690 AND4_3020
*1691 N10428
*1692 OR2_3031
*1693 N8251
*1694 N10425
*1695 OR3_3030
*1696 N8250
*1697 N10422
*1698 OR4_3029
*1699 N8249
*1700 N10419
*1701 OR5_3028
*1702 N8248
*1703 N7426
*1704 NOT1_2057
*1705 BUFF1_1952
*1706 N10465
*1707 NOT1_3045
*1708 N10415
*1709 OR2_3027
*1710 N8246
*1711 N10412
*1712 OR3_3026
*1713 N8245
*1714 N10409
*1715 OR4_3025
*1716 N8244
*1717 N10406
*1718 OR5_3024
*1719 N8243
*1720 N6761
*1721 N9541
*1722 NOT1_2593
*1723 N9540
*1724 NAND2_2592
*1725 N9539
*1726 NAND2_2591
*1727 N7411
*1728 NOT1_2052
*1729 BUFF1_1947
*1730 N10455
*1731 NOT1_3043
*1732 N10354
*1733 N3126
*1734 OR2_2447
*1735 NOT1_942
*1736 OR2_682
*1737 N5165
*1738 NAND2_1276
*1739 N10391
*1740 AND2_3021
*1741 N8950
*1742 OR2_2716
*1743 NOT1_2613
*1744 OR4_2378
*1745 N5631
*1746 NAND2_1389
*1747 N10450
*1748 NOT1_3041
*1749 N10344
*1750 NAND2_3009
*1751 N9726
*1752 N10341
*1753 NAND2_3008
*1754 N9720
*1755 N10445
*1756 NAND2_3040
*1757 N10340
*1758 NAND2_3007
*1759 N10444
*1760 NAND2_3039
*1761 N10338
*1762 NAND2_3005
*1763 N10334
*1764 NAND2_3003
*1765 N9695
*1766 N10441
*1767 NAND2_3038
*1768 N10333
*1769 NAND2_3002
*1770 N10440
*1771 NAND2_3037
*1772 N10331
*1773 NAND2_3000
*1774 N10439
*1775 NAND2_3036
*1776 N10329
*1777 NAND2_2998
*1778 N10438
*1779 NAND2_3035
*1780 N10327
*1781 NAND2_2996
*1782 N10437
*1783 NAND2_3034
*1784 N10325
*1785 NAND2_2994
*1786 N10321
*1787 NAND2_2992
*1788 N8637
*1789 N10318
*1790 NAND2_2991
*1791 N8632
*1792 N10432
*1793 NAND2_3033
*1794 N10317
*1795 NAND2_2990
*1796 N10431
*1797 NAND2_3032
*1798 N10315
*1799 NAND2_2988
*1800 N10311
*1801 BUFF1_2986
*1802 N8247
*1803 N10308
*1804 BUFF1_2985
*1805 N8242
*1806 N10296
*1807 AND2_2979
*1808 N4193
*1809 OR2_2499
*1810 NOT1_1351
*1811 OR2_921
*1812 N9193
*1813 NOT1_2679
*1814 NOR3_2437
*1815 N10339
*1816 NOT1_3006
*1817 N9183
*1818 NOT1_2677
*1819 OR4_2436
*1820 N10337
*1821 NOT1_3004
*1822 N9682
*1823 NOT1_2809
*1824 OR2_2668
*1825 N10332
*1826 NOT1_3001
*1827 N9127
*1828 NOT1_2666
*1829 NOR3_2423
*1830 N10330
*1831 NOT1_2999
*1832 N9117
*1833 NOT1_2664
*1834 OR4_2422
*1835 N10328
*1836 NOT1_2997
*1837 N8186
*1838 NOT1_2417
*1839 NOR4_2041
*1840 N10326
*1841 NOT1_2995
*1842 N8169
*1843 NOT1_2413
*1844 OR5_2039
*1845 N10324
*1846 NOT1_2993
*1847 N8134
*1848 NOT1_2405
*1849 NOR4_2033
*1850 N10316
*1851 NOT1_2989
*1852 N8117
*1853 NOT1_2401
*1854 OR5_2031
*1855 N10314
*1856 NOT1_2987
*1857 N3149
*1858 AND2_1779
*1859 AND3_1778
*1860 AND4_1776
*1861 AND5_1773_A
*1862 AND2_691
*1863 N10281
*1864 AND2_2967
*1865 N3144
*1866 AND2_1777
*1867 AND3_1775
*1868 AND4_1772
*1869 AND2_690
*1870 N6796
*1871 N10280
*1872 AND3_2966
*1873 N3140
*1874 AND2_1774
*1875 AND3_1771
*1876 AND2_689
*1877 N6794
*1878 N6795
*1879 N10279
*1880 AND4_2965
*1881 extra57
*1882 OR5_3028_A
*1883 N10278
*1884 AND5_2964
*1885 N3137
*1886 AND2_1770
*1887 AND2_688
*1888 N6791
*1889 N6792
*1890 N6793
*1891 N3241
*1892 AND2_1844
*1893 AND3_1843
*1894 AND4_1841
*1895 AND5_1838_A
*1896 AND2_712
*1897 N10290
*1898 AND2_2973
*1899 N3236
*1900 AND2_1842
*1901 AND3_1840
*1902 AND4_1837
*1903 AND2_711
*1904 N6893
*1905 N10289
*1906 AND3_2972
*1907 N3232
*1908 AND2_1839
*1909 AND3_1836
*1910 AND2_710
*1911 N6891
*1912 N6892
*1913 N10288
*1914 AND4_2971
*1915 extra56
*1916 OR5_3024_A
*1917 N10287
*1918 AND5_2970
*1919 N3229
*1920 AND2_1835
*1921 AND2_709
*1922 N6888
*1923 N6889
*1924 N6890
*1925 N10155
*1926 NAND2_2908
*1927 N10161
*1928 NAND2_2914
*1929 N10306
*1930 NAND2_2983
*1931 N10307
*1932 NAND2_2984
*1933 N10113
*1934 NAND2_2889
*1935 N10115
*1936 NAND2_2891
*1937 N10299
*1938 NAND2_2980
*1939 N10300
*1940 NAND2_2981
*1941 N9582
*1942 NOT1_2614
*1943 N10295
*1944 NAND2_2978
*1945 N10114
*1946 NAND2_2890
*1947 N10134
*1948 NAND2_2899
*1949 N10293
*1950 NAND2_2976
*1951 N10294
*1952 NAND2_2977
*1953 N10292
*1954 AND2_2975
*1955 N10130
*1956 AND2_2895
*1957 N7671
*1958 AND2_2360
*1959 OR5_2024
*1960 N10291
*1961 AND2_2974
*1962 N7620
*1963 AND2_2349
*1964 OR5_2018
*1965 N10282
*1966 AND2_2968
*1967 N10272
*1968 NAND2_2962
*1969 N10213
*1970 NAND2_2939
*1971 N10271
*1972 NAND2_2961
*1973 N10212
*1974 NAND2_2938
*1975 N10270
*1976 NAND2_2960
*1977 N10269
*1978 OR2_3013
*1979 AND2_2959
*1980 N10108
*1981 AND2_2884
*1982 N10268
*1983 OR2_3012
*1984 AND2_2958
*1985 N10107
*1986 AND2_2883
*1987 N10267
*1988 OR2_3011
*1989 AND2_2957
*1990 N10106
*1991 AND2_2882
*1992 N10266
*1993 OR2_3010
*1994 AND2_2956
*1995 N10105
*1996 AND2_2881
*1997 N10265
*1998 NAND2_2955
*1999 N10206
*2000 NAND2_2937
*2001 N10264
*2002 NAND2_2954
*2003 N10204
*2004 NAND2_2935
*2005 N10200
*2006 NAND2_2933
*2007 N9714
*2008 N10197
*2009 NAND2_2932
*2010 N9710
*2011 N10259
*2012 NAND2_2953
*2013 N10196
*2014 NAND2_2931
*2015 N10192
*2016 NAND2_2929
*2017 N9977
*2018 N10189
*2019 NAND2_2928
*2020 N9678
*2021 N10186
*2022 NAND2_2927
*2023 N9674
*2024 N10183
*2025 NAND2_2926
*2026 N9098
*2027 N10180
*2028 NAND2_2925
*2029 N9092
*2030 N10248
*2031 NAND2_2952
*2032 N10179
*2033 NAND2_2924
*2034 N10247
*2035 NAND2_2951
*2036 N10177
*2037 NAND2_2922
*2038 N10173
*2039 NAND2_2920
*2040 N9077
*2041 N10170
*2042 NAND2_2919
*2043 N9071
*2044 N10141
*2045 AND5_2964_A
*2046 OR4_2906
*2047 N10148
*2048 AND5_2970_A
*2049 OR3_2907
*2050 N10240
*2051 NAND2_2948
*2052 N10165
*2053 NAND2_2918
*2054 N10239
*2055 NAND2_2947
*2056 N10163
*2057 NAND2_2916
*2058 N10230
*2059 AND2_2940
*2060 N10133
*2061 AND2_2898
*2062 N10238
*2063 NAND2_2946
*2064 N10159
*2065 NAND2_2912
*2066 N10237
*2067 NAND2_2945
*2068 N10157
*2069 NAND2_2910
*2070 N8959
*2071 NOT1_2380
*2072 N10234
*2073 NAND2_2944
*2074 N8412
*2075 AND2_2498
*2076 AND5_2152
*2077 N10233
*2078 OR2_2943
*2079 N10232
*2080 NAND2_2942
*2081 N10138
*2082 NAND2_2903
*2083 N10231
*2084 NAND2_2941
*2085 N10136
*2086 NAND2_2901
*2087 N8898
*2088 OR2_2701
*2089 NOT1_2598
*2090 OR4_2371
*2091 N10124
*2092 NOT1_2894
*2093 N6881
*2094 AND2_2087
*2095 AND5_1834
*2096 N5936
*2097 AND5_1834_A
*2098 NAND2_1429
*2099 N5926
*2100 NAND2_1428
*2101 N5915
*2102 NAND2_1427
*2103 extra55
*2104 N5905
*2105 NAND2_1426
*2106 AND5_1838
*2107 N6784
*2108 AND2_2068
*2109 AND5_1769
*2110 N5728
*2111 AND5_1769_A
*2112 NAND2_1399
*2113 N5718
*2114 NAND2_1398
*2115 N5707
*2116 NAND2_1397
*2117 extra54
*2118 N5697
*2119 NAND2_1396
*2120 AND5_1773
*2121 N10116
*2122 OR4_2892
*2123 N3064
*2124 NOT1_924
*2125 BUFF1_671
*2126 N10242
*2127 NOT1_2950
*2128 N3061
*2129 NOT1_923
*2130 BUFF1_670
*2131 N10241
*2132 NOT1_2949
*2133 N6762
*2134 AND2_2067
*2135 NOT1_2064
*2136 AND5_1750
*2137 N6923
*2138 AND2_2107
*2139 AND3_2103
*2140 AND4_2097
*2141 NOT1_2063
*2142 NAND2_1848
*2143 N9742
*2144 NAND2_2699
*2145 N10028
*2146 NOT1_2841
*2147 N10026
*2148 NOT1_2840
*2149 N9723
*2150 NOT1_2824
*2151 NOT1_2686
*2152 N10205
*2153 NOT1_2936
*2154 N9717
*2155 NOT1_2822
*2156 OR2_2682
*2157 N10203
*2158 NOT1_2934
*2159 N9692
*2160 NOT1_2812
*2161 NOT1_2672
*2162 N10195
*2163 NOT1_2930
*2164 N8156
*2165 NOT1_2409
*2166 NOR3_2037
*2167 N10178
*2168 NOT1_2923
*2169 N8146
*2170 NOT1_2407
*2171 OR4_2036
*2172 N10176
*2173 NOT1_2921
*2174 N10073
*2175 NAND2_2867
*2176 N10070
*2177 NAND2_2866
*2178 N9520
*2179 NOT1_2738
*2180 NAND2_2588