*SPEF "1481-1998"
*DESIGN "s344"
*DATE "Wed Jul  2 16:52:43 2014"
*VENDOR "Synopsys, Inc."
*PROGRAM "icc_shell"
*VERSION "G-2012.06-ICC-SP5"
*DESIGN_FLOW "PIN_CAP NONE"
*DIVIDER /
*DELIMITER :
*BUS_DELIMITER [ ]
*T_UNIT 1 NS
*C_UNIT 1 FF
*R_UNIT 1 OHM
*L_UNIT 1 HENRY

*NAME_MAP
*1 B2
*2 B1
*3 B0
*4 START
*5 CK
*6 VDD
*7 VSS
*8 P6
*9 P5
*10 P4
*11 A3
*12 A2
*13 A1
*14 A0
*15 B3
*16 READY
*17 CNTVCO2
*18 CNTVCON2
*19 P3
*20 P2
*21 P1
*22 P0
*23 P7
*24 SMVG4VG1VAD2NF
*25 NOR2_28
*26 AND2_40
*27 SMVG4VG1VAD1NF
*28 AND2_23
*29 SMVG4VX
*30 NOT_58
*31 SMVG5VG1VAD2NF
*32 NOR2_27
*33 AND2_39
*34 SMVG5VG1VAD1NF
*35 AND2_22
*36 SMVG5VX
*37 NOT_57
*38 SMVG3VG1VAD2NF
*39 NOR2_26
*40 AND2_38
*41 SMVG3VG1VAD1NF
*42 AND2_24
*43 SMVG3VX
*44 NOT_56
*45 ADDVG4VCNVAD4NF
*46 NOR2_25
*47 AND3_2
*48 ADDVG4VCNVAD3NF
*49 AND2_37
*50 ADDVG4VSN
*51 NOT_55
*52 ADDVG4VCNVAD2NF
*53 NOR2_24
*54 AND2_36
*55 ADDVG4VCNVAD1NF
*56 AND2_14
*57 ADDVG4VCN
*58 NOT_54
*59 SMVG2VG1VAD2NF
*60 NOR2_23
*61 AND2_35
*62 SMVG2VG1VAD1NF
*63 AND2_25
*64 SMVG2VX
*65 NOT_53
*66 ADDVG3VCNVAD4NF
*67 NOR2_22
*68 AND3_1
*69 ADDVG3VCNVAD3NF
*70 AND2_34
*71 ADDVG3VSN
*72 NOT_52
*73 ADDVG3VCNVAD2NF
*74 NOR2_21
*75 AND2_33
*76 ADDVG3VCNVAD1NF
*77 AND2_13
*78 ADDVG3VCN
*79 NOT_51
*80 ADDVG2VCNVAD4NF
*81 NOR2_20
*82 AND3_0
*83 ADDVG2VCNVAD3NF
*84 AND2_32
*85 ADDVG2VSN
*86 NOT_50
*87 MRVG1VDVAD2NF
*88 NOR2_19
*89 AND2_31
*90 MRVG1VDVAD1NF
*91 AND2_17
*92 MRVG1VD
*93 DFF_10
*94 MRVG2VDVAD2NF
*95 NOR2_18
*96 AND2_30
*97 MRVG2VDVAD1NF
*98 AND2_16
*99 MRVG2VD
*100 DFF_9
*101 MRVG3VDVAD2NF
*102 NOR2_17
*103 AND2_29
*104 MRVG3VDVAD1NF
*105 AND2_15
*106 MRVG3VD
*107 DFF_8
*108 MRVG4VDVAD2NF
*109 NOR2_16
*110 AND2_28
*111 MRVG4VDVAD1NF
*112 AND2_27
*113 MRVG4VD
*114 DFF_7
*115 ADDVG2VCNVAD2NF
*116 NOR2_15
*117 AND2_26
*118 ADDVG2VCNVAD1NF
*119 AND2_12
*120 ADDVG2VCN
*121 NOT_49
*122 CNTVG1VZ
*123 NOR2_14
*124 NOT_39
*125 NOR2_13
*126 NOR2_12
*127 NOT_13
*128 CNTVG1VD
*129 DFF_2
*130 CNTVG2VZ
*131 NAND2_12
*132 CNTVG2VD
*133 DFF_1
*134 CNTVG3VZ
*135 NAND2_11
*136 CNTVG3VD
*137 DFF_0
*138 BMVG2VG1VAD2NF
*139 NOR2_11
*140 AND2_21
*141 BMVG2VG1VAD1NF
*142 AND2_7
*143 BMVG2VX
*144 NOT_48
*145 BMVG3VG1VAD2NF
*146 NOR2_10
*147 AND2_20
*148 BMVG3VG1VAD1NF
*149 AND2_6
*150 BMVG3VX
*151 NOT_47
*152 BMVG4VG1VAD2NF
*153 NOR2_9
*154 AND2_19
*155 BMVG4VG1VAD1NF
*156 AND2_5
*157 BMVG4VX
*158 NOT_46
*159 BMVG5VG1VAD2NF
*160 NOR2_8
*161 AND2_18
*162 BMVG5VG1VAD1NF
*163 AND2_4
*164 BMVG5VX
*165 NOT_45
*166 AMVG2VG1VAD2NF
*167 NOR2_7
*168 AND2_11
*169 AMVG2VG1VAD1NF
*170 AND2_3
*171 AMVG2VX
*172 NOT_43
*173 AMVG3VG1VAD2NF
*174 NOR2_6
*175 AND2_10
*176 AMVG3VG1VAD1NF
*177 AND2_2
*178 AMVG3VX
*179 NOT_42
*180 AMVG4VG1VAD2NF
*181 NOR2_5
*182 AND2_9
*183 AMVG4VG1VAD1NF
*184 AND2_1
*185 AMVG4VX
*186 NOT_41
*187 AMVG5VG1VAD2NF
*188 NOR2_4
*189 AND2_8
*190 AMVG5VG1VAD1NF
*191 AND2_0
*192 AMVG5VX
*193 NOT_40
*194 NOR2_3
*195 NOR2_2
*196 NOT_27
*197 NOT_16
*198 CNTVCON0
*199 NOR2_0
*200 NOT_11
*201 CNTVG2VD1
*202 NAND2_8
*203 OR2_5
*204 IINIIT
*205 NOR3_0
*206 NOT_15
*207 ADSH
*208 NOT_33
*209 NOT_32
*210 CNTVG3VQN
*211 NOR2_1
*212 NOT_0
*213 CNTVCON1
*214 NAND2_4
*215 NOT_26
*216 CNTVG2VQN
*217 NOT_1
*218 CNTVCO1
*219 NAND2_5
*220 CT0
*221 NAND2_9
*222 NAND3_0
*223 NOT_2
*224 CT1
*225 NOT_12
*226 CT2
*227 NAND2_7
*228 OR2_4
*229 ACVPCN
*230 NAND2_16
*231 NAND2_15
*232 NAND2_14
*233 NAND2_13
*234 SM2
*235 ACVG3VD1
*236 DFF_4
*237 SM3
*238 ACVG4VD1
*239 DFF_3
*240 SM1
*241 ACVG2VD1
*242 DFF_5
*243 SM0
*244 ACVG1VD1
*245 DFF_6
*246 CNTVG2VG2VOR1NF
*247 CNTVG2VZ1
*248 CNTVG3VG2VOR1NF
*249 CNTVG3VZ1
*250 ADDVG1VPVOR1NF
*251 NAND2_10
*252 OR2_0
*253 ADDVG1VCN
*254 NAND2_6
*255 NOT_34
*256 ADDVG1VP
*257 NOT_44
*258 CNTVG1VD1
*259 CNTVG1VZ1
*260 CNTVG3VD1
*261 AD0
*262 NOT_22
*263 NOT_6
*264 CNTVCO0
*265 NOT_14
*266 NAND2_3
*267 NAND2_2
*268 NAND2_1
*269 NAND2_0
*270 NOT_10
*271 AX3
*272 DFF_11
*273 AD3N
*274 NOT_25
*275 AX2
*276 DFF_12
*277 AD2N
*278 NOT_24
*279 AX1
*280 DFF_13
*281 AD1N
*282 NOT_23
*283 AX0
*284 DFF_14
*285 AD0N
*286 CT1N
*287 READYN
*288 NOT_17
*289 ADDVC3
*290 OR3_2
*291 AD3
*292 OR2_3
*293 NOT_3
*294 ADDVG4VCNVOR2NF
*295 ADDVC2
*296 OR3_1
*297 AD2
*298 OR2_2
*299 NOT_4
*300 ADDVG3VCNVOR2NF
*301 ADDVC1
*302 OR3_0
*303 AD1
*304 OR2_1
*305 NOT_5
*306 ADDVG2VCNVOR2NF
*307 ADDVG4VCNVOR1NF
*308 ADDVG3VCNVOR1NF
*309 ADDVG2VCNVOR1NF
*310 SMVG4VS0P
*311 NOT_36
*312 S3
*313 SMVG5VS0P
*314 NOT_35
*315 CO
*316 SMVG3VS0P
*317 NOT_37
*318 S2
*319 SMVG2VS0P
*320 NOT_38
*321 S1
*322 MRVSHLDN
*323 BM0
*324 BM1
*325 BM2
*326 BM3
*327 S0
*328 SMVS0N
*329 BMVG2VS0P
*330 NOT_31
*331 BMVG3VS0P
*332 NOT_30
*333 BMVG4VS0P
*334 NOT_29
*335 BMVG5VS0P
*336 NOT_28
*337 NOT_9
*338 NOT_8
*339 NOT_7
*340 AMVG2VS0P
*341 NOT_21
*342 AMVG3VS0P
*343 NOT_20
*344 AMVG4VS0P
*345 NOT_19
*346 AMVG5VS0P
*347 NOT_18
*348 BMVS0N
*349 AMVS0N
*350 AM0
*351 AM1
*352 AM2
*353 AM3
*354 CNTVG1VQN
*355 MRVQN0
*356 MRVQN1
*357 MRVQN2
*358 MRVQN3
*359 ACVQN0
*360 ACVQN1
*361 ACVQN2
*362 ACVQN3

*PORTS
*1 I *L 0.0 *S 0.0 0.0
*2 I *L 0.0 *S 0.0 0.0
*3 I *L 0.0 *S 0.0 0.0
*4 I *L 0.0 *S 0.0 0.0
*5 I *L 0.0 *S 0.0 0.0
*6 I *L 0.0 *S 0.0 0.0
*7 I *L 0.0 *S 0.0 0.0
*8 O *L 0.0 *S 0.0 0.0
*9 O *L 0.0 *S 0.0 0.0
*10 O *L 0.0 *S 0.0 0.0
*11 I *L 0.0 *S 0.0 0.0
*12 I *L 0.0 *S 0.0 0.0
*13 I *L 0.0 *S 0.0 0.0
*14 I *L 0.0 *S 0.0 0.0
*15 I *L 0.0 *S 0.0 0.0
*16 O *L 0.0 *S 0.0 0.0
*17 O *L 0.0 *S 0.0 0.0
*18 O *L 0.0 *S 0.0 0.0
*19 O *L 0.0 *S 0.0 0.0
*20 O *L 0.0 *S 0.0 0.0
*21 O *L 0.0 *S 0.0 0.0
*22 O *L 0.0 *S 0.0 0.0
*23 O *L 0.0 *S 0.0 0.0

*D_NET *24 0.1582534

*CONN
*I *25:A1 I *L 1861.193 *C 9.025 9.33
*I *26:ZN O *L 0.0 *D AND2_X1 *C 9.025 10.31
*N *24:3 *C 9.025 9.33
*N *24:4 *C 9.025 10.31

*CAP
1 *25:A1 0.0
2 *26:ZN 0.0
3 *24:3 0.07912672
4 *24:4 0.07912672

*RES
1 *24:3 *25:A1 22.5
2 *24:4 *26:ZN 22.5
3 *24:3 *24:4 2.512095

*END

*D_NET *27 0.3384278

*CONN
*I *25:A2 I *L 1913.615 *C 8.645 9.33
*I *28:ZN O *L 0.0 *D AND2_X1 *C 10.545 9.05
*N *27:3 *C 8.645 9.33
*N *27:4 *C 8.645 9.05
*N *27:5 *C 8.645 9.05
*N *27:6 *C 10.545 9.05
*N *27:7 *C 10.545 9.05

*CAP
1 *25:A2 0.0
2 *28:ZN 0.01077161
3 *27:3 0.0397542
4 *27:4 0.1199934
5 *27:5 0.03714362
6 *27:6 0.1199934
7 *27:7 0.01077161

*RES
1 *27:3 *25:A2 22.5
2 *27:4 *27:5 22.5
3 *27:6 *27:7 22.5
4 *27:7 *28:ZN 22.5
5 *27:5 *27:3 0.4498974
6 *27:4 *27:6 6.013716

*END

*D_NET *29 0.2627795

*CONN
*I *25:ZN O *L 0.0 *D NOR2_X1 *C 8.835 9.61
*I *30:A I *L 1938.113 *C 7.505 9.33
*N *29:3 *C 7.505 9.33
*N *29:4 *C 7.505 9.47
*N *29:5 *C 7.505 9.47
*N *29:6 *C 8.835 9.47
*N *29:7 *C 8.835 9.47
*N *29:8 *C 8.835 9.61

*CAP
1 *25:ZN 0.0
2 *30:A 0.0
3 *29:3 0.01815947
4 *29:4 0.1069248
5 *29:5 0.01554889
6 *29:6 0.1095224
7 *29:7 0.006305454
8 *29:8 0.006318498

*RES
1 *29:3 *30:A 22.5
2 *29:4 *29:5 22.5
3 *29:6 *29:7 22.5
4 *29:8 *25:ZN 22.5
5 *29:3 *29:5 0.4536446
6 *29:7 *29:8 0.1326496
7 *29:4 *29:6 6.658428

*END

*D_NET *31 0.1651132

*CONN
*I *32:A1 I *L 1861.193 *C 7.505 10.87
*I *33:ZN O *L 0.0 *D AND2_X1 *C 8.265 10.87
*N *31:3 *C 8.265 10.87
*N *31:4 *C 8.265 11.01
*N *31:5 *C 8.265 11.01
*N *31:6 *C 7.505 11.01
*N *31:7 *C 7.505 11.01
*N *31:8 *C 7.505 10.87

*CAP
1 *32:A1 0.0
2 *33:ZN 0.0
3 *31:3 0.02009382
4 *31:4 0.04691388
5 *31:5 0.01748324
6 *31:6 0.04691388
7 *31:7 0.01554889
8 *31:8 0.01815947

*RES
1 *31:3 *33:ZN 22.5
2 *31:4 *31:5 22.5
3 *31:6 *31:7 22.5
4 *31:8 *32:A1 22.5
5 *31:8 *31:7 0.4536446
6 *31:3 *31:5 0.462664
7 *31:6 *31:4 2.0767

*END

*D_NET *34 0.1398306

*CONN
*I *32:A2 I *L 1913.615 *C 7.125 10.87
*I *35:ZN O *L 0.0 *D AND2_X1 *C 6.555 11.01
*N *34:3 *C 7.125 10.87
*N *34:4 *C 7.125 11.01
*N *34:5 *C 7.125 11.01
*N *34:6 *C 6.555 11.01
*N *34:7 *C 6.555 11.01

*CAP
1 *32:A2 0.0
2 *35:ZN 0.01300899
3 *34:3 0.01980635
4 *34:4 0.03840525
5 *34:5 0.01719577
6 *34:6 0.03840525
7 *34:7 0.01300899

*RES
1 *34:3 *32:A2 22.5
2 *34:4 *34:5 22.5
3 *34:6 *34:7 22.5
4 *34:7 *35:ZN 22.5
5 *34:3 *34:5 0.4744729
6 *34:6 *34:4 1.680908

*END

*D_NET *36 0.4183395

*CONN
*I *32:ZN O *L 0.0 *D NOR2_X1 *C 7.495 10.352
*I *37:A I *L 1938.113 *C 5.605 9.33
*N *36:3 *C 7.315 10.31
*N *36:4 *C 7.315 10.31
*N *36:5 *C 7.315 10.31
*N *36:6 *C 5.605 10.31
*N *36:7 *C 5.605 10.31
*N *36:8 *C 5.605 9.33

*CAP
1 *32:ZN 0.02651691
2 *37:A 0.0
3 *36:3 0.008291289
4 *36:4 0.02393242
5 *36:5 0.1101737
6 *36:6 0.09668728
7 *36:7 0.07506367
8 *36:8 0.07767426

*RES
1 *36:3 *36:4 22.5
2 *36:5 *36:3 22.5
3 *36:6 *36:7 22.5
4 *36:8 *37:A 22.5
5 *36:4 *32:ZN 0.4908592
6 *36:8 *36:7 2.249487
7 *36:6 *36:5 4.469732

*END

*D_NET *38 0.1914487

*CONN
*I *39:A1 I *L 1861.193 *C 10.735 13.67
*I *40:ZN O *L 0.0 *D AND2_X1 *C 11.875 13.95
*N *38:3 *C 11.875 13.95
*N *38:4 *C 11.875 13.95
*N *38:5 *C 10.735 13.95
*N *38:6 *C 10.735 13.95
*N *38:7 *C 10.735 13.67

*CAP
1 *39:A1 0.0
2 *40:ZN 0.0
3 *38:3 0.006326085
4 *38:4 0.07260723
5 *38:5 0.06108606
6 *38:6 0.0257016
7 *38:7 0.02572769

*RES
1 *38:3 *40:ZN 22.5
2 *38:4 *38:3 22.5
3 *38:5 *38:6 22.5
4 *38:7 *39:A1 22.5
5 *38:7 *38:6 0.6374041
6 *38:5 *38:4 2.983629

*END

*D_NET *41 0.2110454

*CONN
*I *39:A2 I *L 1913.615 *C 10.355 13.67
*I *42:ZN O *L 0.0 *D AND2_X1 *C 10.925 12.55
*N *41:3 *C 10.355 13.67
*N *41:4 *C 10.925 12.55
*N *41:5 *C 10.355 12.55

*CAP
1 *39:A2 0.0
2 *42:ZN 0.0
3 *41:3 0.06775422
4 *41:4 0.03518398
5 *41:5 0.1081072

*RES
1 *41:3 *39:A2 22.5
2 *41:4 *42:ZN 22.5
3 *41:5 *41:3 2.603045
4 *41:5 *41:4 1.542735

*END

*D_NET *43 0.9256235

*CONN
*I *39:ZN O *L 0.0 *D NOR2_X1 *C 10.545 13.39
*I *44:A I *L 1938.113 *C 5.225 12.13
*N *43:3 *C 10.545 13.39
*N *43:4 *C 10.545 13.39
*N *43:5 *C 5.975 13.39
*N *43:6 *C 5.975 13.39
*N *43:7 *C 5.975 12.55
*N *43:8 *C 5.975 12.55
*N *43:9 *C 5.225 12.55
*N *43:10 *C 5.225 12.55
*N *43:11 *C 5.225 12.13

*CAP
1 *39:ZN 0.0
2 *44:A 0.0
3 *43:3 0.007614749
4 *43:4 0.301897
5 *43:5 0.06610802
6 *43:6 0.2890132
7 *43:7 0.06610802
8 *43:8 0.05624441
9 *43:9 0.05631848
10 *43:10 0.03985452
11 *43:11 0.0424651

*RES
1 *43:3 *39:ZN 22.5
2 *43:4 *43:3 22.5
3 *43:5 *43:6 22.5
4 *43:7 *43:8 22.5
5 *43:9 *43:10 22.5
6 *43:11 *44:A 22.5
7 *43:11 *43:10 0.70915
8 *43:9 *43:8 2.864967
9 *43:6 *43:4 16.05394
10 *43:7 *43:5 1.800347

*END

*D_NET *45 0.2547543

*CONN
*I *46:A1 I *L 1861.193 *C 8.265 13.67
*I *47:ZN O *L 0.0 *D AND3_X1 *C 7.695 12.69
*N *45:3 *C 8.265 13.67
*N *45:4 *C 8.265 12.69
*N *45:5 *C 8.265 12.69
*N *45:6 *C 7.695 12.69
*N *45:7 *C 7.695 12.69

*CAP
1 *46:A1 0.0
2 *47:ZN 0.009630524
3 *45:3 0.07644673
4 *45:4 0.04260517
5 *45:5 0.0764337
6 *45:6 0.04000763
7 *45:7 0.009630524

*RES
1 *45:3 *46:A1 22.5
2 *45:4 *45:5 22.5
3 *45:6 *45:7 22.5
4 *45:7 *47:ZN 22.5
5 *45:5 *45:3 2.824819
6 *45:6 *45:4 1.854378

*END

*D_NET *48 0.1993544

*CONN
*I *46:A2 I *L 1913.615 *C 7.885 13.67
*I *49:ZN O *L 0.0 *D AND2_X1 *C 9.025 13.81
*N *48:3 *C 7.885 13.67
*N *48:4 *C 7.885 13.81
*N *48:5 *C 7.885 13.81
*N *48:6 *C 9.025 13.81
*N *48:7 *C 9.025 13.81

*CAP
1 *46:A2 0.0
2 *49:ZN 0.009180114
3 *48:3 0.0168151
4 *48:4 0.07498729
5 *48:5 0.01420452
6 *48:6 0.07498729
7 *48:7 0.009180114

*RES
1 *48:3 *46:A2 22.5
2 *48:4 *48:5 22.5
3 *48:6 *48:7 22.5
4 *48:7 *49:ZN 22.5
5 *48:3 *48:5 0.452631
6 *48:4 *48:6 4.206521

*END

*D_NET *50 0.2812387

*CONN
*I *46:ZN O *L 0.0 *D NOR2_X1 *C 8.075 13.39
*I *51:A I *L 1938.113 *C 8.645 12.13
*N *50:3 *C 8.075 13.39
*N *50:4 *C 8.075 12.83
*N *50:5 *C 8.075 12.83
*N *50:6 *C 8.645 12.83
*N *50:7 *C 8.645 12.83
*N *50:8 *C 8.645 12.13

*CAP
1 *46:ZN 0.0
2 *51:A 0.0
3 *50:3 0.04879857
4 *50:4 0.03649213
5 *50:5 0.04618799
6 *50:6 0.03649213
7 *50:7 0.05532866
8 *50:8 0.05793924

*RES
1 *50:3 *46:ZN 22.5
2 *50:4 *50:5 22.5
3 *50:6 *50:7 22.5
4 *50:8 *51:A 22.5
5 *50:5 *50:3 1.263706
6 *50:8 *50:7 1.411188
7 *50:4 *50:6 1.966016

*END

*D_NET *52 0.2020247

*CONN
*I *53:A1 I *L 1861.193 *C 7.695 14.93
*I *54:ZN O *L 0.0 *D AND2_X1 *C 9.025 14.93
*N *52:3 *C 7.695 14.93
*N *52:4 *C 7.695 14.93
*N *52:5 *C 9.025 14.93
*N *52:6 *C 9.025 14.93

*CAP
1 *53:A1 0.0
2 *54:ZN 0.009180114
3 *52:3 0.007094007
4 *52:4 0.09442979
5 *52:5 0.08214071
6 *52:6 0.009180114

*RES
1 *52:3 *53:A1 22.5
2 *52:4 *52:3 22.5
3 *52:5 *52:6 22.5
4 *52:6 *54:ZN 22.5
5 *52:4 *52:5 3.630285

*END

*D_NET *55 0.131956

*CONN
*I *53:A2 I *L 1913.615 *C 7.315 14.93
*I *56:ZN O *L 0.0 *D AND2_X1 *C 6.555 14.93
*N *55:3 *C 7.315 14.93
*N *55:4 *C 7.315 14.93
*N *55:5 *C 6.555 14.93
*N *55:6 *C 6.555 14.93

*CAP
1 *53:A2 0.0
2 *56:ZN 0.0104446
3 *55:3 0.005529594
4 *55:4 0.05813095
5 *55:5 0.04740628
6 *55:6 0.0104446

*RES
1 *55:3 *53:A2 22.5
2 *55:4 *55:3 22.5
3 *55:5 *55:6 22.5
4 *55:6 *56:ZN 22.5
5 *55:5 *55:4 2.077134

*END

*D_NET *57 0.4816028

*CONN
*I *53:ZN O *L 0.0 *D NOR2_X1 *C 7.505 14.51
*I *49:A2 I *L 1092.433 *C 8.645 13.67
*I *58:A I *L 1938.113 *C 8.075 12.13
*N *57:4 *C 7.505 14.51
*N *57:5 *C 7.505 13.95
*N *57:6 *C 7.505 13.95
*N *57:7 *C 8.645 13.67
*N *57:8 *C 8.645 13.95
*N *57:9 *C 8.645 13.95
*N *57:10 *C 8.075 12.13
*N *57:11 *C 8.075 12.13
*N *57:12 *C 7.935 12.13
*N *57:13 *C 7.935 12.13
*N *57:14 *C 7.935 13.95
*N *57:15 *C 7.935 13.95

*CAP
1 *53:ZN 0.0
2 *49:A2 0.0
3 *58:A 0.0
4 *57:4 0.04823251
5 *57:5 0.02281569
6 *57:6 0.04562194
7 *57:7 0.0354256
8 *57:8 0.03711056
9 *57:9 0.03281503
10 *57:10 0.007776339
11 *57:11 0.0180789
12 *57:12 0.08182276
13 *57:13 0.005033416
14 *57:14 0.08182276
15 *57:15 0.06504725

*RES
1 *57:4 *53:ZN 22.5
2 *57:5 *57:6 22.5
3 *57:7 *49:A2 22.5
4 *57:8 *57:9 22.5
5 *57:10 *58:A 22.5
6 *57:11 *57:10 22.5
7 *57:12 *57:13 22.5
8 *57:14 *57:15 22.5
9 *57:6 *57:4 1.365348
10 *57:7 *57:9 0.4266714
11 *57:5 *57:15 1.162068
12 *57:15 *57:8 1.812826
13 *57:13 *57:11 0.3153688
14 *57:12 *57:14 3.575499

*END

*D_NET *59 0.3155048

*CONN
*I *60:A1 I *L 1861.193 *C 11.875 6.53
*I *61:ZN O *L 0.0 *D AND2_X1 *C 13.965 6.81
*N *59:3 *C 11.875 6.53
*N *59:4 *C 11.875 6.81
*N *59:5 *C 11.875 6.81
*N *59:6 *C 13.965 6.81
*N *59:7 *C 13.965 6.81

*CAP
1 *60:A1 0.0
2 *61:ZN 0.01126435
3 *59:3 0.03677709
4 *59:4 0.1110162
5 *59:5 0.03416652
6 *59:6 0.1110162
7 *59:7 0.01126435

*RES
1 *59:3 *60:A1 22.5
2 *59:4 *59:5 22.5
3 *59:6 *59:7 22.5
4 *59:7 *61:ZN 22.5
5 *59:3 *59:5 0.4064356
6 *59:4 *59:6 5.614331

*END

*D_NET *62 0.1558004

*CONN
*I *60:A2 I *L 1913.615 *C 11.495 6.53
*I *63:ZN O *L 0.0 *D AND2_X1 *C 10.925 6.81
*N *62:3 *C 11.495 6.53
*N *62:4 *C 11.495 6.81
*N *62:5 *C 11.495 6.81
*N *62:6 *C 10.925 6.81
*N *62:7 *C 10.925 6.81

*CAP
1 *60:A2 0.0
2 *63:ZN 0.009435181
3 *62:3 0.03648772
4 *62:4 0.03328257
5 *62:5 0.03387714
6 *62:6 0.03328257
7 *62:7 0.009435181

*RES
1 *62:3 *60:A2 22.5
2 *62:4 *62:5 22.5
3 *62:6 *62:7 22.5
4 *62:7 *63:ZN 22.5
5 *62:3 *62:5 0.4014822
6 *62:6 *62:4 1.733505

*END

*D_NET *64 0.5749964

*CONN
*I *60:ZN O *L 0.0 *D NOR2_X1 *C 11.685 6.11
*I *65:A I *L 1938.113 *C 8.075 5.27
*N *64:3 *C 11.685 6.11
*N *64:4 *C 11.685 5.97
*N *64:5 *C 11.685 5.97
*N *64:6 *C 8.775 5.97
*N *64:7 *C 8.775 5.97
*N *64:8 *C 8.775 5.69
*N *64:9 *C 8.775 5.69
*N *64:10 *C 8.075 5.69
*N *64:11 *C 8.075 5.69
*N *64:12 *C 8.075 5.27

*CAP
1 *60:ZN 0.0
2 *65:A 0.0
3 *64:3 0.005487366
4 *64:4 0.1698128
5 *64:5 0.002876786
6 *64:6 0.02054657
7 *64:7 0.1697388
8 *64:8 0.02054657
9 *64:9 0.04562968
10 *64:10 0.04570375
11 *64:11 0.04602171
12 *64:12 0.0486323

*RES
1 *64:3 *60:ZN 22.5
2 *64:4 *64:5 22.5
3 *64:6 *64:7 22.5
4 *64:8 *64:9 22.5
5 *64:10 *64:11 22.5
6 *64:12 *65:A 22.5
7 *64:12 *64:11 0.7372081
8 *64:5 *64:3 0.1291294
9 *64:10 *64:9 2.294661
10 *64:7 *64:4 7.03923
11 *64:8 *64:6 0.7665594

*END

*D_NET *66 0.2422473

*CONN
*I *67:A1 I *L 1861.193 *C 14.345 13.67
*I *68:ZN O *L 0.0 *D AND3_X1 *C 12.825 13.67
*N *66:3 *C 14.345 13.67
*N *66:4 *C 14.345 13.67
*N *66:5 *C 12.825 13.67
*N *66:6 *C 12.825 13.67

*CAP
1 *67:A1 0.0
2 *68:ZN 0.01034738
3 *66:3 0.007010207
4 *66:4 0.1133738
5 *66:5 0.1011685
6 *66:6 0.01034738

*RES
1 *66:3 *67:A1 22.5
2 *66:4 *66:3 22.5
3 *66:5 *66:6 22.5
4 *66:6 *68:ZN 22.5
5 *66:5 *66:4 5.256329

*END

*D_NET *69 0.01322167

*CONN
*I *67:A2 I *L 1913.615 *C 13.992 13.687
*I *70:ZN O *L 0.0 *D AND2_X1 *C 13.765 13.58

*CAP
1 *67:A2 0.006610835
2 *70:ZN 0.006610835

*RES
1 *70:ZN *67:A2 0.338264

*END

*D_NET *71 0.4488316

*CONN
*I *67:ZN O *L 0.0 *D NOR2_X1 *C 14.155 13.53
*I *72:A I *L 1938.113 *C 10.942 13.687
*N *71:3 *C 10.925 13.53
*N *71:4 *C 10.925 13.53
*N *71:5 *C 10.925 13.53
*N *71:6 *C 13.965 13.53
*N *71:7 *C 13.965 13.53
*N *71:8 *C 14.155 13.53

*CAP
1 *67:ZN 0.0
2 *72:A 0.006098743
3 *71:3 0.005259815
4 *71:4 0.003514251
5 *71:5 0.1958365
6 *71:6 0.1853817
7 *71:7 0.02635722
8 *71:8 0.02638331

*RES
1 *72:A *71:4 0.1487859
2 *71:3 *71:4 22.5
3 *71:5 *71:3 22.5
4 *71:6 *71:7 22.5
5 *71:8 *67:ZN 22.5
6 *71:7 *71:8 0.2040629
7 *71:5 *71:6 7.697379

*END

*D_NET *73 0.2129427

*CONN
*I *74:A1 I *L 1861.193 *C 15.485 14.93
*I *75:ZN O *L 0.0 *D AND2_X1 *C 14.915 14.93
*N *73:3 *C 15.485 14.93
*N *73:4 *C 15.485 14.65
*N *73:5 *C 15.485 14.65
*N *73:6 *C 14.915 14.65
*N *73:7 *C 14.915 14.65
*N *73:8 *C 14.915 14.93

*CAP
1 *74:A1 0.0
2 *75:ZN 0.0
3 *73:3 0.03079036
4 *73:4 0.0425567
5 *73:5 0.02817978
6 *73:6 0.0425567
7 *73:7 0.0331243
8 *73:8 0.03573488

*RES
1 *73:3 *74:A1 22.5
2 *73:4 *73:5 22.5
3 *73:6 *73:7 22.5
4 *73:8 *75:ZN 22.5
5 *73:7 *73:8 0.4484708
6 *73:5 *73:3 0.6677556
7 *73:6 *73:4 2.032357

*END

*D_NET *76 0.4820286

*CONN
*I *74:A2 I *L 1913.615 *C 15.132 14.912
*I *77:ZN O *L 0.0 *D AND2_X1 *C 11.495 15.35
*N *76:3 *C 11.495 15.35
*N *76:4 *C 11.495 15.35
*N *76:5 *C 15.105 15.35
*N *76:6 *C 15.105 15.35
*N *76:7 *C 15.105 15.07
*N *76:8 *C 15.105 15.07

*CAP
1 *74:A2 0.006602223
2 *77:ZN 0.0
3 *76:3 0.008863049
4 *76:4 0.2093832
5 *76:5 0.1953251
6 *76:6 0.03019786
7 *76:7 0.03022395
8 *76:8 0.001433238

*RES
1 *76:3 *77:ZN 22.5
2 *76:4 *76:3 22.5
3 *76:5 *76:6 22.5
4 *74:A2 *76:8 0.149193
5 *76:7 *76:8 22.5
6 *76:7 *76:6 0.7524324
7 *76:4 *76:5 8.648039

*END

*D_NET *78 0.8971218

*CONN
*I *74:ZN O *L 0.0 *D NOR2_X1 *C 15.295 15.21
*I *70:A2 I *L 1092.433 *C 13.395 13.67
*I *79:A I *L 1938.113 *C 9.612 14.912
*N *78:4 *C 13.395 13.67
*N *78:5 *C 13.775 14.79
*N *78:6 *C 13.775 14.79
*N *78:7 *C 9.595 15.07
*N *78:8 *C 9.595 15.07
*N *78:9 *C 9.595 15.07
*N *78:10 *C 15.295 15.21
*N *78:11 *C 15.295 14.93
*N *78:12 *C 15.295 14.93
*N *78:13 *C 13.395 14.09
*N *78:14 *C 13.775 14.09
*N *78:15 *C 13.775 15.07
*N *78:16 *C 13.775 14.93

*CAP
1 *74:ZN 0.0
2 *70:A2 0.0
3 *79:A 0.006007419
4 *78:4 0.02512429
5 *78:5 0.01485124
6 *78:6 0.03605795
7 *78:7 0.220194
8 *78:8 0.01674252
9 *78:9 0.02274993
10 *78:10 0.03233238
11 *78:11 0.06554743
12 *78:12 0.0297218
13 *78:13 0.04849596
14 *78:14 0.05685817
15 *78:15 0.2285195
16 *78:16 0.09391924

*RES
1 *78:4 *70:A2 22.5
2 *78:5 *78:6 22.5
3 *78:7 *78:8 22.5
4 *79:A *78:9 0.1489895
5 *78:8 *78:9 22.5
6 *78:10 *74:ZN 22.5
7 *78:11 *78:12 22.5
8 *78:4 *78:13 1.292859
9 *78:13 *78:14 0.9137735
10 *78:14 *78:6 1.879494
11 *78:12 *78:10 0.7349928
12 *78:7 *78:15 10.62425
13 *78:5 *78:16 0.3010272
14 *78:16 *78:15 0.3010272
15 *78:16 *78:11 4.595148

*END

*D_NET *80 0.2766959

*CONN
*I *81:A1 I *L 1861.193 *C 15.485 8.07
*I *82:ZN O *L 0.0 *D AND3_X1 *C 14.155 8.07
*N *80:3 *C 14.155 8.07
*N *80:4 *C 14.155 8.21
*N *80:5 *C 14.155 8.21
*N *80:6 *C 15.485 8.21
*N *80:7 *C 15.485 8.21
*N *80:8 *C 15.485 8.07

*CAP
1 *81:A1 0.0
2 *82:ZN 0.0
3 *80:3 0.01897594
4 *80:4 0.1049142
5 *80:5 0.01636536
6 *80:6 0.1049142
7 *80:7 0.01445787
8 *80:8 0.01706845

*RES
1 *80:3 *82:ZN 22.5
2 *80:4 *80:5 22.5
3 *80:6 *80:7 22.5
4 *80:8 *81:A1 22.5
5 *80:3 *80:5 0.4560176
6 *80:8 *80:7 0.4527974
7 *80:4 *80:6 5.84182

*END

*D_NET *83 0.1515014

*CONN
*I *81:A2 I *L 1913.615 *C 15.105 8.07
*I *84:ZN O *L 0.0 *D AND2_X1 *C 15.25 8.91
*N *83:3 *C 15.105 8.07
*N *83:4 *C 15.105 8.07
*N *83:5 *C 15.215 8.07
*N *83:6 *C 15.215 8.07
*N *83:7 *C 15.215 8.91
*N *83:8 *C 15.215 8.91
*N *83:9 *C 15.25 8.91

*CAP
1 *81:A2 0.0
2 *84:ZN 0.00869817
3 *83:3 0.007657884
4 *83:4 0.01959447
5 *83:5 0.04036546
6 *83:6 0.006667438
7 *83:7 0.04036546
8 *83:8 0.007129611
9 *83:9 0.02102285

*RES
1 *83:3 *81:A2 22.5
2 *83:4 *83:3 22.5
3 *83:5 *83:6 22.5
4 *83:7 *83:8 22.5
5 *83:8 *83:9 22.5
6 *83:9 *84:ZN 22.5
7 *83:4 *83:6 0.417179
8 *83:5 *83:7 1.794117

*END

*D_NET *85 0.2070093

*CONN
*I *81:ZN O *L 0.0 *D NOR2_X1 *C 15.295 7.79
*I *86:A I *L 1938.113 *C 15.105 6.53
*N *85:3 *C 15.295 7.79
*N *85:4 *C 15.105 6.53
*N *85:5 *C 15.105 7.79

*CAP
1 *81:ZN 0.0
2 *86:A 0.0
3 *85:3 0.02106452
4 *85:4 0.07985565
5 *85:5 0.1060892

*RES
1 *85:3 *81:ZN 22.5
2 *85:4 *86:A 22.5
3 *85:4 *85:5 2.943428
4 *85:5 *85:3 0.305997

*END

*D_NET *87 0.3271888

*CONN
*I *88:A1 I *L 1861.193 *C 2.347 10.887
*I *89:ZN O *L 0.0 *D AND2_X1 *C 3.135 8.49
*N *87:3 *C 3.135 8.49
*N *87:4 *C 2.375 10.73
*N *87:5 *C 2.375 10.73
*N *87:6 *C 2.375 9.75
*N *87:7 *C 2.755 9.75
*N *87:8 *C 2.755 8.49

*CAP
1 *88:A1 0.006739153
2 *89:ZN 0.0
3 *87:3 0.02935504
4 *87:4 0.05406307
5 *87:5 0.00415466
6 *87:6 0.07962716
7 *87:7 0.07214488
8 *87:8 0.08110482

*RES
1 *87:3 *89:ZN 22.5
2 *88:A1 *87:5 0.1493966
3 *87:4 *87:5 22.5
4 *87:6 *87:7 1.080333
5 *87:6 *87:4 2.162013
6 *87:8 *87:3 0.9689904
7 *87:8 *87:7 2.815054

*END

*D_NET *90 0.01350186

*CONN
*I *88:A2 I *L 1913.615 *C 2.022 10.887
*I *91:ZN O *L 0.0 *D AND2_X1 *C 1.795 10.78

*CAP
1 *88:A2 0.006750931
2 *91:ZN 0.006750931

*RES
1 *91:ZN *88:A2 0.333017

*END

*D_NET *92 0.5422144

*CONN
*I *88:ZN O *L 0.0 *D NOR2_X1 *C 2.185 11.29
*I *93:D I *L 1269.6 *C 1.615 14.93
*N *92:3 *C 1.615 14.93
*N *92:4 *C 2.185 11.29
*N *92:5 *C 1.615 15.07
*N *92:6 *C 2.185 15.07

*CAP
1 *88:ZN 0.0
2 *93:D 0.0
3 *92:3 0.0165462
4 *92:4 0.2233048
5 *92:5 0.04780238
6 *92:6 0.254561

*RES
1 *92:3 *93:D 22.5
2 *92:4 *88:ZN 22.5
3 *92:3 *92:5 0.3151777
4 *92:5 *92:6 1.368422
5 *92:4 *92:6 9.547903

*END

*D_NET *94 0.5718437

*CONN
*I *95:A1 I *L 1861.193 *C 0.475 12.13
*I *96:ZN O *L 0.0 *D AND2_X1 *C 1.045 8.49
*N *94:3 *C 0.475 12.13
*N *94:4 *C 0.475 11.43
*N *94:5 *C 0.475 11.43
*N *94:6 *C 0.655 11.43
*N *94:7 *C 0.655 11.43
*N *94:8 *C 0.655 9.89
*N *94:9 *C 0.655 9.89
*N *94:10 *C 1.045 9.89
*N *94:11 *C 1.045 9.89
*N *94:12 *C 1.045 8.49

*CAP
1 *95:A1 0.0
2 *96:ZN 0.0
3 *94:3 0.05595174
4 *94:4 0.02177537
5 *94:5 0.05334115
6 *94:6 0.0823872
7 *94:7 0.0217013
8 *94:8 0.0823872
9 *94:9 0.02714958
10 *94:10 0.02722365
11 *94:11 0.09865795
12 *94:12 0.1012685

*RES
1 *94:3 *95:A1 22.5
2 *94:4 *94:5 22.5
3 *94:6 *94:7 22.5
4 *94:8 *94:9 22.5
5 *94:10 *94:11 22.5
6 *94:12 *96:ZN 22.5
7 *94:5 *94:3 1.710109
8 *94:12 *94:11 3.754655
9 *94:4 *94:7 1.182731
10 *94:9 *94:10 1.221858
11 *94:8 *94:6 3.086502

*END

*D_NET *97 0.2504969

*CONN
*I *95:A2 I *L 1913.615 *C 0.095 12.13
*I *98:ZN O *L 0.0 *D AND2_X1 *C 1.045 11.29
*N *97:3 *C 0.095 12.13
*N *97:4 *C 0.095 12.13
*N *97:5 *C 0.095 12.13
*N *97:6 *C 0.095 11.29
*N *97:7 *C 0.095 11.29
*N *97:8 *C 1.045 11.29
*N *97:9 *C 1.045 11.29

*CAP
1 *95:A2 0.0
2 *98:ZN 0.01008492
3 *97:3 0.006379278
4 *97:4 0.01851626
5 *97:5 0.05314139
6 *97:6 0.04093034
7 *97:7 0.05564286
8 *97:8 0.05571692
9 *97:9 0.01008492

*RES
1 *97:3 *95:A2 22.5
2 *97:4 *97:3 22.5
3 *97:5 *97:4 22.5
4 *97:6 *97:7 22.5
5 *97:8 *97:9 22.5
6 *97:9 *98:ZN 22.5
7 *97:7 *97:8 2.512877
8 *97:6 *97:5 1.801084

*END

*D_NET *99 0.2108249

*CONN
*I *95:ZN O *L 0.0 *D NOR2_X1 *C 0.465 12.647
*I *100:D I *L 1269.6 *C 0.855 13.67
*N *99:3 *C 0.665 12.69
*N *99:4 *C 0.665 12.69
*N *99:5 *C 0.855 13.67
*N *99:6 *C 0.665 13.67

*CAP
1 *95:ZN 0.02278718
2 *100:D 0.0
3 *99:3 0.0627193
4 *99:4 0.02020269
5 *99:5 0.01861372
6 *99:6 0.08650202

*RES
1 *99:3 *99:4 22.5
2 *99:5 *100:D 22.5
3 *95:ZN *99:4 0.991813
4 *99:3 *99:6 2.960372
5 *99:6 *99:5 0.2880887

*END

*D_NET *101 0.1761006

*CONN
*I *102:A1 I *L 1861.193 *C 3.705 8.07
*I *103:ZN O *L 0.0 *D AND2_X1 *C 3.505 6.62
*N *101:3 *C 3.705 8.07
*N *101:4 *C 3.705 7.09
*N *101:5 *C 3.705 7.09

*CAP
1 *102:A1 0.0
2 *103:ZN 0.01766583
3 *101:3 0.07167671
4 *101:4 0.07167671
5 *101:5 0.01508133

*RES
1 *101:3 *102:A1 22.5
2 *101:4 *101:5 22.5
3 *103:ZN *101:5 0.750422
4 *101:4 *101:3 2.594136

*END

*D_NET *104 0.2506728

*CONN
*I *102:A2 I *L 1913.615 *C 3.325 8.07
*I *105:ZN O *L 0.0 *D AND2_X1 *C 2.185 8.07
*N *104:3 *C 3.325 8.07
*N *104:4 *C 3.325 8.07
*N *104:5 *C 2.185 8.07
*N *104:6 *C 2.185 8.07

*CAP
1 *102:A2 0.0
2 *105:ZN 0.01375887
3 *104:3 0.005816182
4 *104:4 0.1141751
5 *104:5 0.1031638
6 *104:6 0.01375887

*RES
1 *104:3 *102:A2 22.5
2 *104:4 *104:3 22.5
3 *104:5 *104:6 22.5
4 *104:6 *105:ZN 22.5
5 *104:5 *104:4 6.509542

*END

*D_NET *106 0.3976895

*CONN
*I *102:ZN O *L 0.0 *D NOR2_X1 *C 3.515 8.49
*I *107:D I *L 1269.6 *C 3.515 10.87
*N *106:3 *C 3.515 8.49
*N *106:4 *C 3.515 8.49
*N *106:5 *C 3.735 8.49
*N *106:6 *C 3.735 8.49
*N *106:7 *C 3.735 10.59
*N *106:8 *C 3.735 10.59
*N *106:9 *C 3.515 10.59
*N *106:10 *C 3.515 10.59
*N *106:11 *C 3.515 10.87

*CAP
1 *102:ZN 0.0
2 *107:D 0.0
3 *106:3 0.007403414
4 *106:4 0.02958394
5 *106:5 0.1252152
6 *106:6 0.01691138
7 *106:7 0.1252152
8 *106:8 0.02146144
9 *106:9 0.02153551
10 *106:10 0.02387643
11 *106:11 0.02648702

*RES
1 *106:3 *102:ZN 22.5
2 *106:4 *106:3 22.5
3 *106:5 *106:6 22.5
4 *106:7 *106:8 22.5
5 *106:9 *106:10 22.5
6 *106:11 *107:D 22.5
7 *106:10 *106:11 0.6303555
8 *106:4 *106:6 0.8304448
9 *106:9 *106:8 1.137266
10 *106:5 *106:7 4.086285

*END

*D_NET *108 0.166832

*CONN
*I *109:A1 I *L 1861.193 *C 2.375 5.27
*I *110:ZN O *L 0.0 *D AND2_X1 *C 1.425 5.27
*N *108:3 *C 2.375 5.27
*N *108:4 *C 2.375 5.27
*N *108:5 *C 1.425 5.27
*N *108:6 *C 1.425 5.27

*CAP
1 *109:A1 0.0
2 *110:ZN 0.01172572
3 *108:3 0.005487422
4 *108:4 0.07428783
5 *108:5 0.06360535
6 *108:6 0.01172572

*RES
1 *108:3 *109:A1 22.5
2 *108:4 *108:3 22.5
3 *108:5 *108:6 22.5
4 *108:6 *110:ZN 22.5
5 *108:5 *108:4 3.42196

*END

*D_NET *111 0.7215666

*CONN
*I *109:A2 I *L 1913.615 *C 2.022 5.287
*I *112:ZN O *L 0.0 *D AND2_X1 *C 7.695 5.13
*N *111:3 *C 7.695 5.13
*N *111:4 *C 7.695 5.13
*N *111:5 *C 1.995 5.13
*N *111:6 *C 1.995 5.13
*N *111:7 *C 1.995 5.13

*CAP
1 *109:A2 0.01062992
2 *112:ZN 0.0
3 *111:3 0.006840762
4 *111:4 0.3401959
5 *111:5 0.32816
6 *111:6 0.01255505
7 *111:7 0.02318496

*RES
1 *111:3 *112:ZN 22.5
2 *111:4 *111:3 22.5
3 *111:5 *111:6 22.5
4 *111:6 *111:7 22.5
5 *111:7 *109:A2 0.2922934
6 *111:5 *111:4 17.26558

*END

*D_NET *113 0.3927726

*CONN
*I *109:ZN O *L 0.0 *D NOR2_X1 *C 2.185 4.99
*I *114:D I *L 1269.6 *C 0.855 3.73
*N *113:3 *C 2.185 4.99
*N *113:4 *C 2.185 4.71
*N *113:5 *C 2.185 4.71
*N *113:6 *C 0.855 4.71
*N *113:7 *C 0.855 4.71
*N *113:8 *C 0.855 3.73

*CAP
1 *109:ZN 0.0
2 *114:D 0.0
3 *113:3 0.03362519
4 *113:4 0.08913589
5 *113:5 0.03101461
6 *113:6 0.08913589
7 *113:7 0.07362524
8 *113:8 0.07623582

*RES
1 *113:3 *109:ZN 22.5
2 *113:4 *113:5 22.5
3 *113:6 *113:7 22.5
4 *113:8 *114:D 22.5
5 *113:8 *113:7 2.523126
6 *113:5 *113:3 0.7349928
7 *113:6 *113:4 4.456095

*END

*D_NET *115 0.1603512

*CONN
*I *116:A1 I *L 1861.193 *C 15.485 12.13
*I *117:ZN O *L 0.0 *D AND2_X1 *C 15.285 10.78
*N *115:3 *C 15.485 12.13
*N *115:4 *C 15.485 11.29
*N *115:5 *C 15.485 11.29

*CAP
1 *116:A1 0.0
2 *117:ZN 0.01855216
3 *115:3 0.06291568
4 *115:4 0.06291568
5 *115:5 0.01596767

*RES
1 *115:3 *116:A1 22.5
2 *115:4 *115:5 22.5
3 *117:ZN *115:5 0.7825915
4 *115:4 *115:3 2.203611

*END

*D_NET *118 0.2415411

*CONN
*I *116:A2 I *L 1913.615 *C 15.105 12.13
*I *119:ZN O *L 0.0 *D AND2_X1 *C 14.345 11.29
*N *118:3 *C 15.105 12.13
*N *118:4 *C 15.105 11.29
*N *118:5 *C 15.105 11.29
*N *118:6 *C 14.345 11.29
*N *118:7 *C 14.345 11.29

*CAP
1 *116:A2 0.0
2 *119:ZN 0.009398562
3 *118:3 0.06847037
4 *118:4 0.04420691
5 *118:5 0.06585979
6 *118:6 0.04420691
7 *118:7 0.009398562

*RES
1 *118:3 *116:A2 22.5
2 *118:4 *118:5 22.5
3 *118:6 *118:7 22.5
4 *118:7 *119:ZN 22.5
5 *118:5 *118:3 1.929356
6 *118:6 *118:4 2.075357

*END

*D_NET *120 0.6083915

*CONN
*I *116:ZN O *L 0.0 *D NOR2_X1 *C 15.295 11.85
*I *84:A2 I *L 1092.433 *C 14.915 9.33
*I *121:A I *L 1938.113 *C 13.585 12.13
*N *120:4 *C 13.585 12.13
*N *120:5 *C 13.585 11.85
*N *120:6 *C 13.585 11.85
*N *120:7 *C 15.295 11.85
*N *120:8 *C 15.295 11.85
*N *120:9 *C 14.915 9.33
*N *120:10 *C 14.915 10.31
*N *120:11 *C 15.295 10.31

*CAP
1 *116:ZN 0.0
2 *84:A2 0.0
3 *121:A 0.0
4 *120:4 0.03325034
5 *120:5 0.1127514
6 *120:6 0.03063976
7 *120:7 0.1127514
8 *120:8 0.08501417
9 *120:9 0.04988229
10 *120:10 0.0757774
11 *120:11 0.1083248

*RES
1 *120:4 *121:A 22.5
2 *120:5 *120:6 22.5
3 *120:7 *120:8 22.5
4 *120:8 *116:ZN 22.5
5 *120:9 *84:A2 22.5
6 *120:6 *120:4 0.3995648
7 *120:9 *120:10 2.581322
8 *120:10 *120:11 0.9689904
9 *120:11 *120:8 3.740912
10 *120:5 *120:7 4.473061

*END

*D_NET *122 0.129287

*CONN
*I *123:A1 I *L 1861.193 *C 11.115 0.93
*I *124:ZN O *L 0.0 *D INV_X1 *C 10.545 0.93
*N *122:3 *C 11.115 0.93
*N *122:4 *C 11.115 0.93
*N *122:5 *C 10.545 0.93
*N *122:6 *C 10.545 0.93

*CAP
1 *123:A1 0.0
2 *124:ZN 0.01250267
3 *122:3 0.00784399
4 *122:4 0.05473839
5 *122:5 0.04169933
6 *122:6 0.01250267

*RES
1 *122:3 *123:A1 22.5
2 *122:4 *122:3 22.5
3 *122:5 *122:6 22.5
4 *122:6 *124:ZN 22.5
5 *122:5 *122:4 2.098658

*END

*D_NET *4 1.527458

*CONN
*I *123:A2 I *L 1913.615 *C 10.755 0.93
*I *125:A2 I *L 1913.615 *C 6.962 3.712
*I *126:A2 I *L 1913.615 *C 14.535 0.93
*I *127:A I *L 1938.113 *C 7.505 3.73
*P *4 I *C 14.535 0.09
*N *4:6 *C 14.535 0.93
*N *4:7 *C 10.755 0.93
*N *4:8 *C 6.935 3.87
*N *4:9 *C 6.935 3.87
*N *4:10 *C 14.535 0.09
*N *4:11 *C 10.735 0.09
*N *4:12 *C 10.735 0.09
*N *4:13 *C 7.505 1.21
*N *4:14 *C 7.505 1.21
*N *4:15 *C 10.735 1.21
*N *4:16 *C 10.735 1.21
*N *4:17 *C 7.505 3.73
*N *4:18 *C 7.505 3.87

*CAP
1 *123:A2 0.0
2 *125:A2 0.007015274
3 *126:A2 0.0
4 *127:A 0.0
5 *4 0.0618683
6 *4:6 0.0618683
7 *4:7 0.07822375
8 *4:8 0.04328549
9 *4:9 0.004430782
10 *4:10 0.2641411
11 *4:11 0.05045904
12 *4:12 0.2641411
13 *4:13 0.1699572
14 *4:14 0.1352887
15 *4:15 0.1699572
16 *4:16 0.02256963
17 *4:17 0.143141
18 *4:18 0.05111169

*RES
1 *4:6 *126:A2 22.5
2 *4:7 *123:A2 22.5
3 *125:A2 *4:9 0.149193
4 *4:8 *4:9 22.5