*SPEF "1481-1998"
*DESIGN "s382"
*DATE "Wed Jul  2 16:52:59 2014"
*VENDOR "Synopsys, Inc."
*PROGRAM "icc_shell"
*VERSION "G-2012.06-ICC-SP5"
*DESIGN_FLOW "PIN_CAP NONE"
*DIVIDER /
*DELIMITER :
*BUS_DELIMITER [ ]
*T_UNIT 1 NS
*C_UNIT 1 FF
*R_UNIT 1 OHM
*L_UNIT 1 HENRY

*NAME_MAP
*1 FM
*2 CK
*3 VDD
*4 VSS
*5 YLW1
*6 RED2
*7 YLW2
*8 RED1
*9 GRN2
*10 GRN1
*11 CLR
*12 TEST
*13 CLRB
*14 OR4_1
*15 OR2_2
*16 NOT_44
*17 NOT_43
*18 NOT_42
*19 NOT_31
*20 NOR3_9
*21 NOR3_8
*22 NOR3_7
*23 NOR3_4
*24 NOR4_0_A
*25 NOR2_2
*26 OR4_2
*27 OR3_2
*28 NOR3_19
*29 NOR3_18
*30 NOR3_17
*31 NOR3_16
*32 NOR3_15
*33 NOR3_14
*34 NOR3_13
*35 NOR3_12
*36 C3_Q0VZ
*37 NAND2_24
*38 UC_27
*39 NOR3_11
*40 C3_Q0VD
*41 DFF_12
*42 C3_Q1VZ
*43 NAND2_23
*44 C3_Q1VD
*45 DFF_11
*46 C3_Q2VZ
*47 NAND2_22
*48 C3_Q2VD
*49 DFF_10
*50 C3_Q3VZ
*51 NOT_58
*52 C3_Q3VD
*53 DFF_9
*54 R2CVAD2NF
*55 NOR2_9
*56 AND2_8
*57 R2CVAD1NF
*58 AND2_3
*59 R2C
*60 DFF_4
*61 Y1CVAD2NF
*62 NOR2_8
*63 AND2_7
*64 Y1CVAD1NF
*65 AND2_5
*66 Y1C
*67 DFF_3
*68 UC_19VZ
*69 NAND2_18
*70 C2_CO
*71 NOR3_6
*72 NOT_50
*73 UC_19VD
*74 DFF_16
*75 UC_18VZ
*76 NAND2_17
*77 UC_18VD
*78 DFF_15
*79 UC_17VZ
*80 NAND2_16
*81 UC_17VD
*82 DFF_14
*83 UC_16VZ
*84 NOT_55
*85 UC_16VD
*86 DFF_13
*87 CO2
*88 NOR2_7
*89 NOR3_10
*90 NOR4_3_A
*91 NOT_56
*92 UC_26
*93 NOR4_3
*94 NOT_7
*95 C3VCO0
*96 NAND2_20
*97 OR2_15
*98 C3VCIIA
*99 NOR3_0
*100 UC_23
*101 NOT_4
*102 UC_25
*103 NOT_6
*104 C3VCO1
*105 NAND2_19
*106 OR2_14
*107 extra3
*108 C3VCO2
*109 OR2_13
*110 UC_24
*111 NOT_5
*112 UC_10VZ
*113 NAND2_8
*114 C1_CO
*115 NOR2_3
*116 NOR2_0
*117 UC_10VD
*118 DFF_19
*119 UC_9VZ
*120 NAND2_7
*121 UC_9VD
*122 DFF_18
*123 UC_8VZ
*124 NOT_49
*125 UC_8VD
*126 DFF_17
*127 TCOMBVNODE8
*128 NOR2_6
*129 NAND4_2
*130 TCOMB_GA1VAD1NF
*131 AND2_0
*132 TCOMB_GA1
*133 DFF_7
*134 TCOMBVNODE12
*135 NOR2_5
*136 NAND4_1
*137 TCOMBVNQA
*138 NAND3_1
*139 NAND2_5
*140 OR4_0
*141 AND3_1
*142 NOT_20
*143 TCOMB_YA2
*144 DFF_2
*145 extra2
*146 NOR4_2
*147 NOR4_2_A
*148 TCOMB_GA2VAD1NF
*149 TCOMB_GA2
*150 DFF_6
*151 TCOMB_GA2VAD4NF
*152 AND2_1
*153 TCOMB_GA2VAD3NF
*154 AND2_2
*155 TCOMB_GA2VAD2NF
*156 AND3_0
*157 CTST
*158 NOR2_4
*159 NOR3_5
*160 NOR4_1_A
*161 NOT_48
*162 UC_22
*163 NOR4_1
*164 NOT_11
*165 C2VCO0
*166 NAND2_13
*167 OR2_11
*168 C2VCIIA
*169 NOR3_2
*170 UC_20
*171 NOT_8
*172 UC_21
*173 NOT_10
*174 C2VCO1
*175 NAND2_12
*176 OR2_10
*177 extra1
*178 C2VCO2
*179 OR2_9
*180 C2_QN2
*181 NOT_9
*182 UC_11VZ
*183 NOT_33
*184 UC_11VD
*185 DFF_20
*186 TESTL
*187 OR2_3
*188 NOT_0
*189 DFF_0
*190 extra0
*191 NOR4_0
*192 C3_Q1
*193 NOT_21
*194 OR3_1
*195 TCOMBVNODE15
*196 TCOMBVNFM
*197 NAND4_0
*198 OR2_0
*199 NOT_18
*200 TCOMBVNQC
*201 OR4_3
*202 NOT_22
*203 TCOMBVNFEL
*204 NOT_27
*205 TCOMBVNODE19
*206 NAND2_6
*207 UC_14
*208 NOR2_1
*209 NOR3_3
*210 NOT_14
*211 UC_15
*212 NOT_34
*213 NOT_15
*214 C1VCO1
*215 NAND2_1
*216 OR2_5
*217 UC_13
*218 NOT_13
*219 C1VCO2
*220 OR2_4
*221 C1VCIIA
*222 NOR3_1
*223 UC_12
*224 NOT_12
*225 UC_17
*226 UC_18
*227 UC_19
*228 NAND2_14
*229 OR2_12
*230 UC_9
*231 UC_10
*232 NAND2_2
*233 OR2_6
*234 UC_11
*235 NOT_24
*236 C3_Q2
*237 OR3_0
*238 C3_Q0
*239 NAND2_21
*240 NAND2_0
*241 OR2_16
*242 C3_Q0VZVOR1NF
*243 C3_Q0VUC_0
*244 C3_Q1VZVOR1NF
*245 C3_Q1VUC_0
*246 C3_Q2VZVOR1NF
*247 C3_Q2VUC_0
*248 C3VIINHN
*249 UC_19VZVOR1NF
*250 UC_19VUC_0
*251 UC_18VZVOR1NF
*252 UC_18VUC_0
*253 UC_17VZVOR1NF
*254 UC_17VUC_0
*255 TCOMBVNODE16
*256 NAND2_15
*257 NAND2_11
*258 TCOMBVNODE3
*259 TCOMB_YA1
*260 C2VIINHN
*261 TCOMBVNODE14
*262 TCOMB_FE
*263 NOT_54
*264 NOT_53
*265 TESTLVIINMUXVOR2NF
*266 NAND2_10
*267 OR2_8
*268 TESTLVIINMUXVOR1NF
*269 TESTLVIINMUXVND1
*270 NOT_52
*271 TCOMBVNODE4
*272 NAND2_4
*273 TCOMBVNQB
*274 FMLVIINMUXVOR2NF
*275 NAND2_9
*276 OR2_7
*277 FMLVIINMUXVOR1NF
*278 OR2_1
*279 FMLVIINMUXVND1
*280 NOT_51
*281 UC_10VZVOR1NF
*282 UC_10VUC_0
*283 UC_9VZVOR1NF
*284 UC_9VUC_0
*285 TCOMBVNODE16VOR1NF
*286 TCOMBVNCLR
*287 NAND3_0
*288 TCOMB_RA1VOR2NF
*289 TCOMB_RA1VOR1NF
*290 TCOMB_RA1
*291 DFF_5
*292 TCOMBVNODE8VOR2NF
*293 TCOMBVNODE8VOR1NF
*294 TCOMBVNODE4VOR2NF
*295 TCOMBVNODE4VOR1NF
*296 TCOMB_RA2VOR3NF
*297 NAND2_3
*298 TCOMB_RA2VOR1NF
*299 TCOMB_RA2
*300 C1VCO0
*301 TCOMBVNQD
*302 NOT_23
*303 TCOMBVNODE6
*304 TCOMBVNODE18
*305 C3_Q3
*306 C3_Q3VZVOR1NF
*307 UC_16
*308 UC_16VZVOR1NF
*309 TESTLVIINMUXVIIR1
*310 NOT_45
*311 TESTLVIINLATCHN
*312 FMLVIINMUXVIIR1
*313 NOT_41
*314 FMLVIINLATCHN
*315 NOT_1
*316 UC_8
*317 UC_8VZVOR1NF
*318 FML
*319 DFF_1
*320 TESTB
*321 NOT_32
*322 FMB
*323 NOT_30
*324 OLATCH_FEL
*325 DFF_8
*326 FEN
*327 TESTLVIINLATCHVCDN
*328 AND2_6
*329 TESTLVIINMUX
*330 TESTLVIINLATCHVCDAD
*331 FMLVIINLATCHVCDN
*332 AND2_4
*333 FMLVIINMUX
*334 FMLVIINLATCHVCDAD
*335 II84
*336 NOT_57
*337 TCOMB_FE_BF
*338 OUTBUFVBUFY1VIIR1
*339 NOT_47
*340 NOT_40
*341 OUTBUFVBUFR2VIIR1
*342 NOT_46
*343 NOT_39
*344 OLATCH_Y1L
*345 NOT_2
*346 OLATCH_R2L
*347 NOT_3
*348 OUTBUFVBUFY2VIIR1
*349 NOT_38
*350 NOT_29
*351 OUTBUFVBUFR1VIIR1
*352 NOT_37
*353 NOT_28
*354 OUTBUFVBUFG2VIIR1
*355 NOT_36
*356 NOT_26
*357 OUTBUFVBUFG1VIIR1
*358 NOT_35
*359 NOT_25
*360 UC_11VUC_0
*361 TESTBVIIR1
*362 NOT_19
*363 CLRBVIIR1
*364 NOT_17
*365 FMBVIIR1
*366 NOT_16
*367 OLATCH_Y2L
*368 OLATCH_R1L
*369 OLATCH_G2L
*370 OLATCH_G1L
*371 OLATCHVUC_5
*372 OLATCHVUC_6

*PORTS
*1 I *L 0.0 *S 0.0 0.0
*2 I *L 0.0 *S 0.0 0.0
*3 I *L 0.0 *S 0.0 0.0
*4 I *L 0.0 *S 0.0 0.0
*5 O *L 0.0 *S 0.0 0.0
*6 O *L 0.0 *S 0.0 0.0
*7 O *L 0.0 *S 0.0 0.0
*8 O *L 0.0 *S 0.0 0.0
*9 O *L 0.0 *S 0.0 0.0
*10 O *L 0.0 *S 0.0 0.0
*11 I *L 0.0 *S 0.0 0.0
*12 I *L 0.0 *S 0.0 0.0

*D_NET *13 7.689936

*CONN
*I *14:A4 I *L 1046.591 *C 7.695 10.87
*I *15:A2 I *L 1077.17 *C 8.885 10.87
*I *16:A I *L 1938.113 *C 9.215 5.27
*I *17:A I *L 1938.113 *C 10.735 8.07
*I *18:A I *L 1938.113 *C 13.585 13.67
*I *19:ZN O *L 0.0 *D INV_X1 *C 15.675 7.51
*I *20:A1 I *L 1864.053 *C 13.395 9.33
*I *21:A1 I *L 1864.053 *C 13.395 5.27
*I *22:A1 I *L 1864.053 *C 13.585 6.53
*I *23:A1 I *L 1864.053 *C 12.445 12.13
*I *24:A1 I *L 1864.053 *C 10.355 8.07
*I *25:A1 I *L 1861.193 *C 11.495 5.27
*I *26:A4 I *L 1046.591 *C 8.835 6.53
*I *27:A3 I *L 1059.898 *C 9.06 9.33
*I *28:A1 I *L 1864.053 *C 4.655 9.33
*I *29:A1 I *L 1864.053 *C 4.085 8.07
*I *30:A1 I *L 1864.053 *C 3.325 8.07
*I *31:A1 I *L 1864.053 *C 5.985 8.07
*I *32:A1 I *L 1864.053 *C 6.555 12.13
*I *33:A1 I *L 1864.053 *C 7.505 14.93
*I *34:A1 I *L 1864.053 *C 13.205 13.67
*I *35:A1 I *L 1864.053 *C 6.745 13.67
*N *13:23 *C 12.445 12.13
*N *13:24 *C 12.445 12.27
*N *13:25 *C 12.445 12.27
*N *13:26 *C 12.695 12.27
*N *13:27 *C 12.695 12.27
*N *13:28 *C 10.355 8.07
*N *13:29 *C 13.395 9.33
*N *13:30 *C 13.395 9.47
*N *13:31 *C 13.395 9.47
*N *13:32 *C 12.695 13.53
*N *13:33 *C 12.695 13.53
*N *13:34 *C 13.205 13.53
*N *13:35 *C 13.205 13.53
*N *13:36 *C 4.655 9.33
*N *13:37 *C 4.655 9.05
*N *13:38 *C 4.655 9.05
*N *13:39 *C 4.085 8.07
*N *13:40 *C 4.085 8.07
*N *13:41 *C 3.325 8.07
*N *13:42 *C 3.325 8.07
*N *13:43 *C 5.985 8.07
*N *13:44 *C 5.985 8.07
*N *13:45 *C 7.095 8.21
*N *13:46 *C 7.095 8.21
*N *13:47 *C 7.095 8.21
*N *13:48 *C 6.555 12.13
*N *13:49 *C 6.555 12.55
*N *13:50 *C 6.555 12.55
*N *13:51 *C 6.815 12.55
*N *13:52 *C 7.505 14.93
*N *13:53 *C 7.505 14.79
*N *13:54 *C 7.505 14.79
*N *13:55 *C 6.815 14.79
*N *13:56 *C 6.815 14.79
*N *13:57 *C 6.815 14.79
*N *13:58 *C 6.815 14.79
*N *13:59 *C 13.205 13.67
*N *13:60 *C 6.745 13.67
*N *13:61 *C 6.745 13.25
*N *13:62 *C 6.745 13.25
*N *13:63 *C 6.815 13.25
*N *13:64 *C 6.815 13.25
*N *13:65 *C 6.815 13.25
*N *13:66 *C 11.495 5.27
*N *13:67 *C 11.495 5.41
*N *13:68 *C 11.495 5.41
*N *13:69 *C 8.885 10.87
*N *13:70 *C 6.815 6.53
*N *13:71 *C 6.815 6.53
*N *13:72 *C 7.695 10.87
*N *13:73 *C 7.695 10.87
*N *13:74 *C 6.815 11.01
*N *13:75 *C 9.06 9.33
*N *13:76 *C 15.675 7.51
*N *13:77 *C 13.585 13.67
*N *13:78 *C 9.215 5.27
*N *13:79 *C 9.215 5.41
*N *13:80 *C 9.215 5.41
*N *13:81 *C 9.215 5.41
*N *13:82 *C 9.215 5.41
*N *13:83 *C 15.675 8.77
*N *13:84 *C 15.675 8.77
*N *13:85 *C 15.675 8.77
*N *13:86 *C 15.675 8.77
*N *13:87 *C 14.935 8.77
*N *13:88 *C 14.935 8.77
*N *13:89 *C 14.935 9.47
*N *13:90 *C 14.935 9.47
*N *13:91 *C 3.735 9.05
*N *13:92 *C 3.735 9.05
*N *13:93 *C 3.735 8.07
*N *13:94 *C 3.735 8.07
*N *13:95 *C 6.815 9.05
*N *13:96 *C 6.815 9.05
*N *13:97 *C 12.695 9.47
*N *13:98 *C 12.695 9.47
*N *13:99 *C 15.485 6.53
*N *13:100 *C 15.485 6.53
*N *13:101 *C 15.485 6.53
*N *13:102 *C 15.485 6.53
*N *13:103 *C 14.935 6.53
*N *13:104 *C 14.935 6.53
*N *13:105 *C 9.895 5.41
*N *13:106 *C 9.895 5.41
*N *13:107 *C 9.895 5.41
*N *13:108 *C 6.815 12.55
*N *13:109 *C 6.815 12.55
*N *13:110 *C 6.815 12.55
*N *13:111 *C 13.395 5.27
*N *13:112 *C 13.395 5.41
*N *13:113 *C 13.395 5.41
*N *13:114 *C 6.815 9.05
*N *13:115 *C 6.815 9.05
*N *13:116 *C 6.815 11.01
*N *13:117 *C 6.815 11.01
*N *13:118 *C 6.815 11.01
*N *13:119 *C 10.735 8.07
*N *13:120 *C 10.355 8.21
*N *13:121 *C 10.355 8.21
*N *13:122 *C 9.055 8.21
*N *13:123 *C 9.055 8.21
*N *13:124 *C 9.055 8.21
*N *13:125 *C 9.055 5.41
*N *13:126 *C 9.055 5.41
*N *13:127 *C 9.055 8.21
*N *13:128 *C 9.055 9.33
*N *13:129 *C 9.055 9.33
*N *13:130 *C 9.055 9.33
*N *13:131 *C 9.055 9.33
*N *13:132 *C 9.025 9.33
*N *13:133 *C 14.655 5.41
*N *13:134 *C 14.655 5.41
*N *13:135 *C 13.585 6.53
*N *13:136 *C 13.585 6.53
*N *13:137 *C 9.895 6.53
*N *13:138 *C 9.895 6.53
*N *13:139 *C 9.895 6.53
*N *13:140 *C 9.055 6.81
*N *13:141 *C 9.055 6.81
*N *13:142 *C 9.055 6.81
*N *13:143 *C 9.215 6.81
*N *13:144 *C 9.215 6.81
*N *13:145 *C 8.835 6.53
*N *13:146 *C 14.935 6.53
*N *13:147 *C 9.215 6.53
*N *13:148 *C 9.025 10.87
*N *13:149 *C 10.735 8.21
*N *13:150 *C 13.585 13.53
*N *13:151 *C 15.485 7.65
*N *13:152 *C 15.675 7.65
*N *13:153 *C 5.985 8.21
*N *13:154 *C 7.695 11.01
*N *13:155 *C 14.655 6.53
*N *13:156 *C 9.055 6.53

*CAP
1 *14:A4 0.0
2 *15:A2 0.0
3 *16:A 0.0
4 *17:A 0.0
5 *18:A 0.0
6 *19:ZN 0.0
7 *20:A1 0.0
8 *21:A1 0.0
9 *22:A1 0.0
10 *23:A1 0.0
11 *24:A1 0.0
12 *25:A1 0.0
13 *26:A4 0.0
14 *27:A3 0.0
15 *28:A1 0.0
16 *29:A1 0.0
17 *30:A1 0.0
18 *31:A1 0.0
19 *32:A1 0.0
20 *33:A1 0.0
21 *34:A1 0.0
22 *35:A1 0.0
23 *13:23 0.02436987
24 *13:24 0.02884904
25 *13:25 0.02435683
26 *13:26 0.2623778
27 *13:27 0.02617743
28 *13:28 0.01785854
29 *13:29 0.02194279
30 *13:30 0.1393722
31 *13:31 0.02192974
32 *13:32 0.08487395
33 *13:33 0.04103846
34 *13:34 0.04371007
35 *13:35 0.03782447
36 *13:36 0.04564862
37 *13:37 0.2286485
38 *13:38 0.04303804
39 *13:39 0.01510277
40 *13:40 0.05064469
41 *13:41 0.01510277
42 *13:42 0.05522728
43 *13:43 0.005564794
44 *13:44 0.02951683
45 *13:45 0.005371238
46 *13:46 0.06241219
47 *13:47 0.1213942
48 *13:48 0.04874356
49 *13:49 0.02630565
50 *13:50 0.04613299
51 *13:51 0.02623158
52 *13:52 0.0253791
53 *13:53 0.06057274
54 *13:54 0.02536606
55 *13:55 0.007008821
56 *13:56 0.05790113
57 *13:57 0.01535007
58 *13:58 0.05126429
59 *13:59 0.01638607
60 *13:60 0.04401563
61 *13:61 0.006389521
62 *13:62 0.04140506
63 *13:63 0.01578597
64 *13:64 0.01182476
65 *13:65 0.07699383
66 *13:66 0.01883754
67 *13:67 0.2302077
68 *13:68 0.01622696
69 *13:69 0.01870059
70 *13:70 0.1017921
71 *13:71 0.1393272
72 *13:72 0.01735631
73 *13:73 0.03535951
74 *13:74 0.06937607
75 *13:75 0.01408437
76 *13:76 0.007374353
77 *13:77 0.01510353
78 *13:78 0.02378338
79 *13:79 0.01006036
80 *13:80 0.02377034
81 *13:81 0.02483144
82 *13:82 0.06998692
83 *13:83 0.005608211
84 *13:84 0.04932871
85 *13:85 0.0169388
86 *13:86 0.05178627
87 *13:87 0.03893321
88 *13:88 0.04458509
89 *13:89 0.04610756
90 *13:90 0.08656658
91 *13:91 0.07297847
92 *13:92 0.06773839
93 *13:93 0.07297847
94 *13:94 0.07039729
95 *13:95 0.1393272
96 *13:96 0.1555668
97 *13:97 0.1722347
98 *13:98 0.04486491
99 *13:99 0.007469316
100 *13:100 0.06632772
101 *13:101 0.01911815
102 *13:102 0.04941115
103 *13:103 0.03623985
104 *13:104 0.01318553
105 *13:105 0.03667887
106 *13:106 0.01160127
107 *13:107 0.1338485
108 *13:108 0.01952865
109 *13:109 0.0009588902
110 *13:110 0.08192057
111 *13:111 0.02343439
112 *13:112 0.1926057
113 *13:113 0.02342134
114 *13:114 0.001994267
115 *13:115 0.07367623
116 *13:116 0.06483728
117 *13:117 0.002047325
118 *13:118 0.083009
119 *13:119 0.01624624
120 *13:120 0.1007
121 *13:121 0.04020526
122 *13:122 0.008366237
123 *13:123 0.09802839
124 *13:124 0.1243361
125 *13:125 0.10225
126 *13:126 0.01016981
127 *13:127 0.1469576
128 *13:128 0.03786297
129 *13:129 0.002419312
130 *13:130 0.01692434
131 *13:131 0.02109089
132 *13:132 0.1092735
133 *13:133 0.0726347
134 *13:134 0.07677861
135 *13:135 0.01637514
136 *13:136 0.3375852
137 *13:137 0.0100788
138 *13:138 0.2283541
139 *13:139 0.06124055
140 *13:140 0.008757006
141 *13:141 0.009888711
142 *13:142 0.03711395
143 *13:143 0.02203016
144 *13:144 0.02248609
145 *13:145 0.03445245
146 *13:146 0.08231767
147 *13:147 0.06730259
148 *13:148 0.1057814
149 *13:149 0.04119048
150 *13:150 0.03913947
151 *13:151 0.08192965
152 *13:152 0.07488949
153 *13:153 0.09163337
154 *13:154 0.09264842
155 *13:155 0.09635853
156 *13:156 0.1752941

*RES
1 *13:23 *23:A1 22.5
2 *13:24 *13:25 22.5
3 *13:26 *13:27 22.5
4 *13:28 *24:A1 22.5
5 *13:29 *20:A1 22.5
6 *13:30 *13:31 22.5
7 *13:32 *13:33 22.5
8 *13:34 *13:35 22.5
9 *13:36 *28:A1 22.5
10 *13:37 *13:38 22.5
11 *13:39 *29:A1 22.5
12 *13:40 *13:39 22.5
13 *13:41 *30:A1 22.5
14 *13:42 *13:41 22.5
15 *13:43 *31:A1 22.5
16 *13:44 *13:43 22.5
17 *13:45 *13:46 22.5
18 *13:47 *13:45 5.625
19 *13:48 *32:A1 22.5
20 *13:49 *13:50 22.5
21 *13:110 *13:51 22.5
22 *13:52 *33:A1 22.5
23 *13:53 *13:54 22.5
24 *13:55 *13:56 22.5
25 *13:57 *13:55 5.625
26 *13:58 *13:57 5.625
27 *13:59 *34:A1 22.5
28 *13:60 *35:A1 22.5
29 *13:61 *13:62 22.5
30 *13:63 *13:61 22.5
31 *13:64 *13:63 5.625
32 *13:65 *13:64 5.625
33 *13:66 *25:A1 22.5
34 *13:67 *13:68 22.5
35 *13:69 *15:A2 22.5
36 *13:70 *13:71 5.625
37 *13:72 *14:A4 22.5
38 *13:73 *13:72 22.5
39 *13:118 *13:74 22.5
40 *13:75 *27:A3 22.5
41 *13:76 *19:ZN 22.5
42 *13:77 *18:A 22.5
43 *13:78 *16:A 22.5
44 *13:79 *13:80 22.5
45 *13:81 *13:79 22.5
46 *13:82 *13:81 5.625
47 *13:83 *13:84 22.5
48 *13:85 *13:83 22.5
49 *13:86 *13:85 5.625
50 *13:87 *13:88 5.625
51 *13:89 *13:90 22.5
52 *13:91 *13:92 22.5
53 *13:93 *13:94 22.5
54 *13:95 *13:96 22.5
55 *13:97 *13:98 22.5
56 *13:99 *13:100 22.5
57 *13:101 *13:99 22.5
58 *13:102 *13:101 5.625
59 *13:103 *13:104 5.625
60 *13:105 *13:106 5.625
61 *13:106 *13:107 22.5
62 *13:108 *13:109 5.625
63 *13:109 *13:110 5.625
64 *13:111 *21:A1 22.5
65 *13:112 *13:113 22.5
66 *13:114 *13:95 5.625
67 *13:115 *13:114 5.625
68 *13:116 *13:117 5.625
69 *13:117 *13:118 5.625
70 *13:119 *17:A 22.5
71 *13:120 *13:121 22.5
72 *13:122 *13:123 22.5
73 *13:124 *13:122 5.625
74 *13:125 *13:126 5.625
75 *13:127 *13:124 5.625
76 *13:128 *13:129 5.625
77 *13:129 *13:130 5.625
78 *13:130 *13:131 22.5
79 *13:131 *13:132 22.5
80 *13:133 *13:134 22.5
81 *13:135 *22:A1 22.5
82 *13:136 *13:135 22.5
83 *13:137 *13:138 22.5
84 *13:139 *13:137 5.625
85 *13:140 *13:141 5.625
86 *13:141 *13:142 22.5
87 *13:143 *13:144 22.5
88 *13:145 *26:A4 22.5
89 *13:104 *13:146 22.5
90 *13:38 *13:36 0.5441095
91 *13:48 *13:50 0.7660496
92 *13:62 *13:60 0.8216783
93 *13:54 *13:52 0.4702702
94 *13:145 *13:147 1.09077
95 *13:69 *13:148 0.3838071
96 *13:132 *13:75 0.09148522
97 *13:132 *13:148 3.84018
98 *13:78 *13:80 0.460342
99 *13:147 *13:144 0.4633843
100 *13:28 *13:121 0.21656
101 *13:121 *13:149 1.146676
102 *13:119 *13:149 0.1576737
103 *13:66 *13:68 0.4633976
104 *13:23 *13:25 0.4659501
105 *13:35 *13:59 0.2036023
106 *13:35 *13:150 1.066381
107 *13:111 *13:113 0.4522888
108 *13:29 *13:31 0.3939723
109 *13:150 *13:77 0.1606816
110 *13:100 *13:151 3.371947
111 *13:151 *13:152 0.4800181
112 *13:76 *13:152 0.440297
113 *13:152 *13:84 2.553722
114 *13:42 *13:94 2.20247
115 *13:94 *13:40 1.927161
116 *13:92 *13:37 3.878058
117 *13:37 *13:96 7.184628
118 *13:44 *13:153 0.3726476
119 *13:153 *13:46 2.779559
120 *13:49 *13:51 1.3251
121 *13:74 *13:154 4.005626
122 *13:56 *13:53 2.528186
123 *13:73 *13:154 0.1990657
124 *13:142 *13:143 1.108926
125 *13:123 *13:120 4.922765
126 *13:107 *13:67 6.795939
127 *13:67 *13:112 6.116221
128 *13:112 *13:134 4.059964
129 *13:138 *13:136 11.76805
130 *13:136 *13:146 3.448632
131 *13:24 *13:27 1.163298
132 *13:98 *13:30 2.478679
133 *13:30 *13:90 5.058095
134 *13:33 *13:34 1.981107
135 *13:93 *13:91 1.987473
136 *13:71 *13:95 4.784292
137 *13:118 *13:110 3.000021
138 *13:97 *13:26 5.094064
139 *13:26 *13:32 2.367243
140 *13:133 *13:155 2.318028
141 *13:155 *13:104 0.5146517
142 *13:88 *13:89 1.542418
143 *13:70 *13:156 4.068828
144 *13:156 *13:139 1.609938
145 *13:47 *13:124 3.699318
146 *13:126 *13:82 0.4218211
147 *13:82 *13:105 1.327897
148 *13:156 *13:140 0.5115214
149 *13:103 *13:102 1.223502
150 *13:87 *13:86 1.559337
151 *13:115 *13:116 3.830892
152 *13:108 *13:65 1.40466
153 *13:65 *13:58 2.937017
154 *13:125 *13:127 5.235553
155 *13:127 *13:128 2.170839

*END

*D_NET *36 0.8591869

*CONN
*I *28:A2 I *L 1844.203 *C 4.492 9.312
*I *37:ZN O *L 0.0 *D NAND2_X1 *C 5.785 11.71
*N *36:3 *C 4.465 9.47
*N *36:4 *C 4.465 9.47
*N *36:5 *C 4.465 10.31
*N *36:6 *C 4.465 10.31
*N *36:7 *C 6.535 10.31
*N *36:8 *C 6.535 10.31
*N *36:9 *C 6.535 11.71
*N *36:10 *C 6.535 11.71
*N *36:11 *C 5.785 11.71
*N *36:12 *C 5.785 11.71

*CAP
1 *28:A2 0.007392709
2 *37:ZN 0.009891978
3 *36:3 0.09218223
4 *36:4 0.004808216
5 *36:5 0.1590732
6 *36:6 0.08957165
7 *36:7 0.1141255
8 *36:8 0.1589992
9 *36:9 0.1141255
10 *36:10 0.04952533
11 *36:11 0.0495994
12 *36:12 0.009891978

*RES
1 *28:A2 *36:4 0.1497155
2 *36:3 *36:4 22.5
3 *36:5 *36:6 22.5
4 *36:7 *36:8 22.5
5 *36:9 *36:10 22.5
6 *36:11 *36:12 22.5
7 *36:12 *37:ZN 22.5
8 *36:3 *36:6 2.188014
9 *36:5 *36:8 9.076906
10 *36:11 *36:10 2.629152
11 *36:7 *36:9 2.756017

*END

*D_NET *38 1.022574

*CONN
*I *28:A3 I *L 1885.075 *C 4.295 9.33
*I *29:A3 I *L 1885.075 *C 3.705 8.07
*I *30:A3 I *L 1885.075 *C 2.945 8.07
*I *31:A3 I *L 1885.075 *C 5.605 8.07
*I *39:ZN O *L 0.0 *D NOR3_X1 *C 5.595 11.247
*N *38:6 *C 4.275 8.21
*N *38:7 *C 4.275 8.21
*N *38:8 *C 4.295 9.33
*N *38:9 *C 2.945 8.07
*N *38:10 *C 2.945 8.21
*N *38:11 *C 2.945 8.21
*N *38:12 *C 5.605 8.07
*N *38:13 *C 5.605 8.21
*N *38:14 *C 5.605 8.21
*N *38:15 *C 3.705 8.07
*N *38:16 *C 3.515 8.21
*N *38:17 *C 3.515 8.21
*N *38:18 *C 4.275 10.03
*N *38:19 *C 4.275 10.03
*N *38:20 *C 5.605 10.17
*N *38:21 *C 5.605 10.17
*N *38:22 *C 5.605 10.45
*N *38:23 *C 5.605 10.45
*N *38:24 *C 3.705 8.21
*N *38:25 *C 4.575 10.03
*N *38:26 *C 4.575 10.17

*CAP
1 *28:A3 0.0
2 *29:A3 0.0
3 *30:A3 0.0
4 *31:A3 0.0
5 *39:ZN 0.007711614
6 *38:6 0.1335212
7 *38:7 0.07150836
8 *38:8 0.1334864
9 *38:9 0.005594463
10 *38:10 0.04345413
11 *38:11 0.002983883
12 *38:12 0.005211162
13 *38:13 0.07703977
14 *38:14 0.002600581
15 *38:15 0.0155203
16 *38:16 0.09993554
17 *38:17 0.02128937
18 *38:18 0.02483672
19 *38:19 0.05676993
20 *38:20 0.07705038
21 *38:21 0.03453907
22 *38:22 0.03456516
23 *38:23 0.002542629
24 *38:24 0.04199171
25 *38:25 0.03910389
26 *38:26 0.09131756

*RES
1 *38:6 *38:7 22.5
2 *38:8 *28:A3 22.5
3 *38:9 *30:A3 22.5
4 *38:10 *38:11 22.5
5 *38:12 *31:A3 22.5
6 *38:13 *38:14 22.5
7 *38:15 *29:A3 22.5
8 *38:16 *38:17 22.5
9 *38:18 *38:19 22.5
10 *38:20 *38:21 22.5
11 *39:ZN *38:23 0.1489689
12 *38:22 *38:23 22.5
13 *38:11 *38:9 0.130372
14 *38:17 *38:24 0.4561405
15 *38:15 *38:24 0.177722
16 *38:7 *38:8 2.93049
17 *38:8 *38:19 1.585607
18 *38:14 *38:12 0.1311312
19 *38:21 *38:22 0.6750957
20 *38:10 *38:16 2.602947
21 *38:16 *38:6 3.090999
22 *38:6 *38:13 3.633049
23 *38:18 *38:25 1.485893
24 *38:25 *38:26 0.4892192
25 *38:26 *38:20 4.092873

*END

*D_NET *40 1.579969

*CONN
*I *28:ZN O *L 0.0 *D NOR3_X1 *C 4.465 9.05
*I *41:D I *L 1269.6 *C 5.035 0.93
*N *40:3 *C 4.465 9.05
*N *40:4 *C 4.465 8.77
*N *40:5 *C 4.465 8.77
*N *40:6 *C 4.575 8.77
*N *40:7 *C 4.575 8.77
*N *40:8 *C 4.575 6.39
*N *40:9 *C 4.575 6.39
*N *40:10 *C 6.255 6.39
*N *40:11 *C 6.255 6.39
*N *40:12 *C 6.255 0.65
*N *40:13 *C 6.255 0.65
*N *40:14 *C 5.035 0.65
*N *40:15 *C 5.035 0.65
*N *40:16 *C 5.035 0.93

*CAP
1 *28:ZN 0.0
2 *41:D 0.0
3 *40:3 0.03666096
4 *40:4 0.005651832
5 *40:5 0.03405038
6 *40:6 0.1466641
7 *40:7 0.005577759
8 *40:8 0.1466641
9 *40:9 0.1317926
10 *40:10 0.3609959
11 *40:11 0.1317926
12 *40:12 0.3609959
13 *40:13 0.08025554
14 *40:14 0.0803296
15 *40:15 0.02796358
16 *40:16 0.03057416

*RES
1 *40:3 *28:ZN 22.5
2 *40:4 *40:5 22.5
3 *40:6 *40:7 22.5
4 *40:8 *40:9 22.5
5 *40:10 *40:11 22.5
6 *40:12 *40:13 22.5
7 *40:14 *40:15 22.5
8 *40:16 *41:D 22.5
9 *40:5 *40:3 0.7912993
10 *40:15 *40:16 0.6303555
11 *40:4 *40:7 0.3434786
12 *40:9 *40:11 6.767767
13 *40:14 *40:13 4.377927
14 *40:8 *40:6 4.468897
15 *40:12 *40:10 10.54898

*END

*D_NET *42 0.1632636

*CONN
*I *29:A2 I *L 1844.203 *C 3.895 8.07
*I *43:ZN O *L 0.0 *D NAND2_X1 *C 4.075 8.952
*N *42:3 *C 3.895 8.91
*N *42:4 *C 3.895 8.91
*N *42:5 *C 3.895 8.07

*CAP
1 *29:A2 0.0
2 *43:ZN 0.02489879
3 *42:3 0.05931753
4 *42:4 0.0223143
5 *42:5 0.05673303

*RES
1 *42:3 *42:4 22.5
2 *42:5 *29:A2 22.5
3 *42:4 *43:ZN 0.4448367
4 *42:5 *42:3 2.392925

*END

*D_NET *44 1.240747

*CONN
*I *29:ZN O *L 0.0 *D NOR3_X1 *C 4.085 8.35
*I *45:D I *L 1269.6 *C 1.615 0.93
*N *44:3 *C 4.085 8.35
*N *44:4 *C 4.085 8.35
*N *44:5 *C 1.805 8.35
*N *44:6 *C 1.805 8.35
*N *44:7 *C 1.615 0.93
*N *44:8 *C 1.805 0.93

*CAP
1 *29:ZN 0.008386156
2 *45:D 0.0
3 *44:3 0.01961712
4 *44:4 0.1721358
5 *44:5 0.1582943
6 *44:6 0.4171554
7 *44:7 0.02011148
8 *44:8 0.4450465

*RES
1 *44:3 *29:ZN 22.5
2 *44:4 *44:3 22.5
3 *44:5 *44:6 22.5
4 *44:7 *45:D 22.5
5 *44:7 *44:8 0.4561405
6 *44:8 *44:6 18.64949
7 *44:5 *44:4 8.792513

*END

*D_NET *46 0.5450844

*CONN
*I *30:A2 I *L 1844.203 *C 3.135 8.07
*I *47:ZN O *L 0.0 *D NAND2_X1 *C 1.045 10.31
*N *46:3 *C 1.045 10.31
*N *46:4 *C 1.045 8.49
*N *46:5 *C 1.045 8.49
*N *46:6 *C 3.135 8.49
*N *46:7 *C 3.135 8.49
*N *46:8 *C 3.135 8.07

*CAP
1 *30:A2 0.0
2 *47:ZN 0.0
3 *46:3 0.1116358
4 *46:4 0.1249356
5 *46:5 0.1090252
6 *46:6 0.1249356
7 *46:7 0.03726304
8 *46:8 0.03728913

*RES
1 *46:3 *47:ZN 22.5
2 *46:4 *46:5 22.5
3 *46:6 *46:7 22.5
4 *46:8 *30:A2 22.5
5 *46:5 *46:3 4.281163
6 *46:8 *46:7 0.9851147
7 *46:4 *46:6 6.037302

*END

*D_NET *48 0.8220602

*CONN
*I *30:ZN O *L 0.0 *D NOR3_X1 *C 3.515 7.79
*I *49:D I *L 1269.6 *C 0.855 3.73
*N *48:3 *C 3.515 7.79
*N *48:4 *C 3.515 7.79
*N *48:5 *C 1.045 7.79
*N *48:6 *C 1.045 7.79
*N *48:7 *C 0.855 3.73
*N *48:8 *C 1.045 3.73

*CAP
1 *30:ZN 0.0
2 *49:D 0.0
3 *48:3 0.005647423
4 *48:4 0.1722801
5 *48:5 0.1614376
6 *48:6 0.2189741
7 *48:7 0.01848364
8 *48:8 0.2452374

*RES
1 *48:3 *30:ZN 22.5
2 *48:4 *48:3 22.5
3 *48:5 *48:6 22.5
4 *48:7 *49:D 22.5
5 *48:7 *48:8 0.4561405
6 *48:8 *48:6 8.950491
7 *48:5 *48:4 8.24765

*END

*D_NET *50 0.248394

*CONN
*I *31:A2 I *L 1844.203 *C 5.795 8.07
*I *51:ZN O *L 0.0 *D INV_X1 *C 5.415 8.91
*N *50:3 *C 5.415 8.91
*N *50:4 *C 5.795 8.07
*N *50:5 *C 6.175 8.91
*N *50:6 *C 5.795 8.49
*N *50:7 *C 6.175 8.49

*CAP
1 *31:A2 0.0
2 *51:ZN 0.0
3 *50:3 0.05647143
4 *50:4 0.02311707
5 *50:5 0.0791835
6 *50:6 0.04889023
7 *50:7 0.04073178

*RES
1 *50:3 *51:ZN 22.5
2 *50:4 *31:A2 22.5
3 *50:3 *50:5 2.197663
4 *50:4 *50:6 1.283288
5 *50:6 *50:7 0.9920866
6 *50:7 *50:5 0.9717926

*END

*D_NET *52 1.36844

*CONN
*I *31:ZN O *L 0.0 *D NOR3_X1 *C 6.165 8.447
*I *53:D I *L 1269.6 *C 10.545 3.73
*N *52:3 *C 6.555 8.35
*N *52:4 *C 6.555 8.35
*N *52:5 *C 6.555 8.07
*N *52:6 *C 6.555 8.07
*N *52:7 *C 7.655 8.07
*N *52:8 *C 7.655 8.07
*N *52:9 *C 7.655 3.45
*N *52:10 *C 7.655 3.45
*N *52:11 *C 10.545 3.45
*N *52:12 *C 10.545 3.45
*N *52:13 *C 10.545 3.73

*CAP
1 *31:ZN 0.02740459
2 *53:D 0.0
3 *52:3 0.04034568
4 *52:4 0.0248201
5 *52:5 0.1014091
6 *52:6 0.0377351
7 *52:7 0.302778
8 *52:8 0.1013351
9 *52:9 0.302778
10 *52:10 0.1841226
11 *52:11 0.1841967
12 *52:12 0.02945235
13 *52:13 0.03206293

*RES
1 *52:3 *52:4 22.5
2 *52:5 *52:6 22.5
3 *52:7 *52:8 22.5
4 *52:9 *52:10 22.5
5 *52:11 *52:12 22.5
6 *52:13 *53:D 22.5
7 *31:ZN *52:4 1.021414
8 *52:6 *52:3 0.9566544
9 *52:12 *52:13 0.636716
10 *52:5 *52:8 5.901856
11 *52:10 *52:11 8.002934
12 *52:9 *52:7 8.521239

*END

*D_NET *54 0.3502749

*CONN
*I *55:A1 I *L 1861.193 *C 9.785 10.87
*I *56:ZN O *L 0.0 *D AND2_X1 *C 8.075 11.71
*N *54:3 *C 9.785 10.87
*N *54:4 *C 9.785 10.87
*N *54:5 *C 8.075 10.87
*N *54:6 *C 8.075 10.87
*N *54:7 *C 8.075 11.71

*CAP
1 *55:A1 0.0
2 *56:ZN 0.0
3 *54:3 0.006848724
4 *54:4 0.117162
5 *54:5 0.1051182
6 *54:6 0.05926766
7 *54:7 0.06187823

*RES
1 *54:3 *55:A1 22.5
2 *54:4 *54:3 22.5
3 *54:5 *54:6 22.5
4 *54:7 *56:ZN 22.5
5 *54:6 *54:7 2.094478
6 *54:5 *54:4 4.313573

*END

*D_NET *57 0.4690519

*CONN
*I *55:A2 I *L 1913.615 *C 9.405 10.87
*I *58:ZN O *L 0.0 *D AND2_X1 *C 8.265 13.11
*N *57:3 *C 9.405 10.87
*N *57:4 *C 9.405 11.15
*N *57:5 *C 9.405 11.15
*N *57:6 *C 8.215 11.15
*N *57:7 *C 8.215 11.15
*N *57:8 *C 8.215 13.11
*N *57:9 *C 8.215 13.11
*N *57:10 *C 8.265 13.11

*CAP
1 *55:A2 0.0
2 *58:ZN 0.009335515
3 *57:3 0.0388159
4 *57:4 0.08960099
5 *57:5 0.03620532
6 *57:6 0.08716787
7 *57:7 0.08952691
8 *57:8 0.08716787
9 *57:9 0.008350469
10 *57:10 0.02288106

*RES
1 *57:3 *55:A2 22.5
2 *57:4 *57:5 22.5
3 *57:6 *57:7 22.5
4 *57:8 *57:9 22.5
5 *57:9 *57:10 22.5
6 *57:10 *58:ZN 22.5
7 *57:3 *57:5 0.4219349
8 *57:7 *57:4 4.24196
9 *57:6 *57:8 3.727728

*END

*D_NET *59 1.470642

*CONN
*I *55:ZN O *L 0.0 *D NOR2_X1 *C 9.775 10.352
*I *60:D I *L 1269.6 *C 13.965 3.73
*N *59:3 *C 9.785 10.59
*N *59:4 *C 9.785 10.59
*N *59:5 *C 9.785 10.59
*N *59:6 *C 14.375 10.59
*N *59:7 *C 14.375 10.59
*N *59:8 *C 14.375 3.59
*N *59:9 *C 14.375 3.59
*N *59:10 *C 13.965 3.59
*N *59:11 *C 13.965 3.59
*N *59:12 *C 13.965 3.73

*CAP
1 *55:ZN 0.01487276
2 *60:D 0.0
3 *59:3 0.008355381
4 *59:4 0.01228827
5 *59:5 0.2957826
6 *59:6 0.3922773
7 *59:7 0.2821581
8 *59:8 0.3922773
9 *59:9 0.03186329
10 *59:10 0.03193736
11 *59:11 0.003109701
12 *59:12 0.005720282

*RES
1 *59:3 *59:4 22.5
2 *59:5 *59:3 22.5
3 *59:6 *59:7 22.5
4 *59:8 *59:9 22.5
5 *59:10 *59:11 22.5
6 *59:12 *60:D 22.5
7 *55:ZN *59:4 0.1449354
8 *59:11 *59:12 0.130372
9 *59:5 *59:7 13.93082
10 *59:10 *59:9 1.603235
11 *59:8 *59:6 13.12806

*END

*D_NET *61 0.1528966

*CONN
*I *62:A1 I *L 1861.193 *C 4.247 13.687
*I *63:ZN O *L 0.0 *D AND2_X1 *C 4.465 12.69
*N *61:3 *C 4.465 13.67
*N *61:4 *C 4.465 13.67
*N *61:5 *C 4.465 12.69

*CAP
1 *62:A1 0.01381932
2 *63:ZN 0.0
3 *61:3 0.06392124
4 *61:4 0.01123483
5 *61:5 0.06392124

*RES
1 *61:3 *61:4 22.5
2 *61:5 *63:ZN 22.5
3 *62:A1 *61:4 0.6089498
4 *61:5 *61:3 2.606275

*END

*D_NET *64 0.2525593

*CONN
*I *62:A2 I *L 1913.615 *C 3.895 13.67
*I *65:ZN O *L 0.0 *D AND2_X1 *C 5.415 13.67
*N *64:3 *C 3.895 13.67
*N *64:4 *C 3.895 13.67
*N *64:5 *C 5.415 13.67
*N *64:6 *C 5.415 13.67

*CAP
1 *62:A2 0.0
2 *65:ZN 0.009699455
3 *64:3 0.01543666
4 *64:4 0.1191777
5 *64:5 0.09854601
6 *64:6 0.009699455

*RES
1 *64:3 *62:A2 22.5
2 *64:4 *64:3 22.5
3 *64:5 *64:6 22.5
4 *64:6 *65:ZN 22.5
5 *64:4 *64:5 4.437977

*END

*D_NET *66 0.6429417

*CONN
*I *62:ZN O *L 0.0 *D NOR2_X1 *C 4.085 14.09
*I *67:D I *L 1269.6 *C 0.855 16.47
*N *66:3 *C 4.085 14.09
*N *66:4 *C 4.085 14.09
*N *66:5 *C 0.855 14.09
*N *66:6 *C 0.855 14.09
*N *66:7 *C 0.855 16.47

*CAP
1 *62:ZN 0.0
2 *67:D 0.0
3 *66:3 0.005760078
4 *66:4 0.1610767
5 *66:5 0.1501216
6 *66:6 0.1616863
7 *66:7 0.1642969

*RES
1 *66:3 *62:ZN 22.5
2 *66:4 *66:3 22.5
3 *66:5 *66:6 22.5
4 *66:7 *67:D 22.5
5 *66:6 *66:7 6.581346
6 *66:5 *66:4 8.235752

*END

*D_NET *68 0.4853259

*CONN
*I *32:A2 I *L 1844.203 *C 6.392 12.112
*I *69:ZN O *L 0.0 *D NAND2_X1 *C 9.025 12.69
*N *68:3 *C 9.025 12.69
*N *68:4 *C 9.025 12.97
*N *68:5 *C 9.025 12.97
*N *68:6 *C 6.365 12.97
*N *68:7 *C 6.365 12.97
*N *68:8 *C 6.365 12.27
*N *68:9 *C 6.365 12.27

*CAP
1 *32:A2 0.00668944
2 *69:ZN 0.0
3 *68:3 0.0353876
4 *68:4 0.1344445
5 *68:5 0.03277702
6 *68:6 0.1344445
7 *68:7 0.06743362
8 *68:8 0.07004421
9 *68:9 0.004104948

*RES
1 *68:3 *69:ZN 22.5
2 *68:4 *68:5 22.5
3 *68:6 *68:7 22.5
4 *32:A2 *68:9 0.1489863
5 *68:8 *68:9 22.5
6 *68:8 *68:7 1.984285
7 *68:3 *68:5 0.8582462
8 *68:6 *68:4 6.663548

*END

*D_NET *70 1.647822

*CONN
*I *32:A3 I *L 1885.075 *C 6.175 12.13
*I *33:A3 I *L 1885.075 *C 7.125 14.93
*I *34:A3 I *L 1885.075 *C 12.825 13.67
*I *35:A3 I *L 1885.075 *C 6.387 13.687
*I *71:ZN O *L 0.0 *D NOR3_X1 *C 9.785 13.95
*I *72:A I *L 1938.113 *C 5.795 13.67
*N *70:7 *C 9.785 13.95
*N *70:8 *C 9.785 13.95
*N *70:9 *C 6.175 12.13
*N *70:10 *C 6.175 12.69
*N *70:11 *C 6.175 12.69
*N *70:12 *C 5.975 12.69
*N *70:13 *C 5.975 12.69
*N *70:14 *C 5.975 13.67
*N *70:15 *C 5.975 13.67
*N *70:16 *C 5.985 13.67
*N *70:17 *C 7.125 14.93
*N *70:18 *C 7.125 13.95
*N *70:19 *C 7.125 13.95
*N *70:20 *C 6.175 13.67
*N *70:21 *C 6.175 13.67
*N *70:22 *C 5.795 13.67
*N *70:23 *C 5.985 13.95
*N *70:24 *C 5.985 13.95
*N *70:25 *C 12.825 13.67
*N *70:26 *C 12.825 13.67
*N *70:27 *C 12.825 13.95

*CAP
1 *32:A3 0.0
2 *33:A3 0.0
3 *34:A3 0.0
4 *35:A3 0.01501704
5 *71:ZN 0.0
6 *72:A 0.0
7 *70:7 0.006724454
8 *70:8 0.4083093
9 *70:9 0.05836631
10 *70:10 0.01945762
11 *70:11 0.05575572
12 *70:12 0.07157406
13 *70:13 0.01938355
14 *70:14 0.07157406
15 *70:15 0.007072294
16 *70:16 0.07016139
17 *70:17 0.07804722
18 *70:18 0.2650938
19 *70:19 0.07543664
20 *70:20 0.01938914
21 *70:21 0.01243255
22 *70:22 0.01293556
23 *70:23 0.07239033
24 *70:24 0.02040034
25 *70:25 0.01180483
26 *70:26 0.03970966
27 *70:27 0.2367862

*RES
1 *70:7 *71:ZN 22.5
2 *70:8 *70:7 22.5
3 *70:9 *32:A3 22.5
4 *70:10 *70:11 22.5
5 *70:12 *70:13 22.5
6 *70:14 *70:15 22.5
7 *70:15 *70:16 22.5
8 *70:17 *33:A3 22.5
9 *70:18 *70:19 22.5
10 *70:20 *70:21 22.5
11 *70:22 *72:A 22.5
12 *70:23 *70:24 22.5
13 *70:25 *34:A3 22.5
14 *70:26 *70:25 22.5
15 *70:21 *35:A3 0.6377731
16 *70:22 *70:16 0.6241924
17 *70:16 *70:20 0.3721147
18 *70:16 *70:24 0.4985139
19 *70:9 *70:11 1.407836
20 *70:19 *70:17 2.633513
21 *70:13 *70:10 0.8033373
22 *70:23 *70:18 3.944806
23 *70:18 *70:8 11.51881
24 *70:8 *70:27 10.38865
25 *70:26 *70:27 0.5697888
26 *70:12 *70:14 1.993286

*END
