*SPEF "1481-1998"
*DESIGN "s420"
*DATE "Fri Aug  1 15:46:21 2014"
*VENDOR "Synopsys, Inc."
*PROGRAM "icc_shell"
*VERSION "G-2012.06-ICC-SP5"
*DESIGN_FLOW "PIN_CAP NONE"
*DIVIDER /
*DELIMITER :
*BUS_DELIMITER [ ]
*T_UNIT 1 NS
*C_UNIT 1 FF
*R_UNIT 1 OHM
*L_UNIT 1 HENRY

*NAME_MAP
*1 C_15
*2 C_16
*3 P_0
*4 CK
*5 VDD
*6 VSS
*7 C_7
*8 C_8
*9 C_9
*10 C_10
*11 C_11
*12 C_12
*13 C_13
*14 C_14
*15 Z
*16 C_0
*17 C_1
*18 C_2
*19 C_3
*20 C_4
*21 C_5
*22 C_6
*23 I631_1
*24 NOR2_23
*25 AND2_46
*26 I631_2
*27 AND2_47
*28 I626
*29 NAND3_3
*30 I607_1
*31 NOR2_22
*32 AND2_44
*33 I607_2
*34 AND2_45
*35 I602
*36 NAND3_2
*37 I583_1
*38 NOR2_21
*39 AND2_42
*40 I583_2
*41 AND2_43
*42 I578
*43 NAND3_1
*44 I559_1
*45 NOR2_20
*46 AND2_40
*47 I559_2
*48 AND2_41
*49 I554
*50 NAND3_0
*51 X_15
*52 NOR3_6
*53 OR2_6
*54 NOT_59
*55 NOT_34
*56 DFF_13
*57 I503
*58 NOR2_19
*59 NAND2_23
*60 I498
*61 NOT_60
*62 I406_4
*63 AND2_39
*64 I497
*65 I405_4
*66 AND2_38
*67 I496
*68 NOR2_18
*69 NOT_58
*70 I505
*71 NAND2_24
*72 NOT_61
*73 I404_4
*74 AND2_37
*75 I494
*76 NOR2_17
*77 NOT_56
*78 I495
*79 NOT_57
*80 I403_4
*81 AND2_36
*82 extra2
*83 NOR4_2
*84 NOR4_2_A
*85 X_9
*86 NAND2_11
*87 NAND2_10
*88 AND2_16
*89 NOT_51
*90 NOT_24
*91 DFF_11
*92 I407_3
*93 AND2_27
*94 X_12
*95 NAND2_9
*96 OR3_4
*97 NOT_54
*98 NOT_27
*99 DFF_8
*100 X_10
*101 AND2_15
*102 NOT_52
*103 NOT_23
*104 DFF_10
*105 X_11
*106 NOR3_5
*107 AND2_13
*108 NOT_53
*109 NOT_28
*110 NOT_21
*111 DFF_9
*112 I476
*113 NOR2_16
*114 NAND2_21
*115 I470
*116 I406_3
*117 AND2_35
*118 I469
*119 I405_3
*120 AND2_34
*121 I468
*122 NOR2_15
*123 I478
*124 NAND2_22
*125 NOT_55
*126 I404_3
*127 AND2_33
*128 I466
*129 NOR2_14
*130 NOT_50
*131 I467
*132 I403_3
*133 AND2_32
*134 extra1
*135 NOR4_1
*136 NOR4_1_A
*137 X_5
*138 NAND2_7
*139 NAND2_6
*140 AND2_10
*141 NOT_45
*142 NOT_14
*143 DFF_7
*144 I407_2
*145 AND2_26
*146 X_8
*147 NAND2_5
*148 OR3_2
*149 NOT_48
*150 NOT_17
*151 DFF_4
*152 X_6
*153 AND2_9
*154 NOT_46
*155 NOT_13
*156 DFF_6
*157 X_7
*158 NOR3_4
*159 AND2_7
*160 NOT_47
*161 NOT_18
*162 NOT_11
*163 DFF_5
*164 I448
*165 NOR2_13
*166 NAND2_19
*167 I442
*168 I406_2
*169 AND2_31
*170 I441
*171 I405_2
*172 AND2_30
*173 I440
*174 NOR2_12
*175 I450
*176 NAND2_20
*177 NOT_49
*178 I404_2
*179 AND2_29
*180 I438
*181 NOR2_11
*182 NOT_44
*183 I439
*184 I403_2
*185 AND2_28
*186 extra0
*187 NOR4_0
*188 NOR4_0_A
*189 X_1
*190 NAND2_3
*191 NAND2_2
*192 AND2_4
*193 NOT_39
*194 NOT_4
*195 DFF_3
*196 I407_1
*197 X_4
*198 NAND2_1
*199 OR3_0
*200 NOT_42
*201 NOT_7
*202 DFF_0
*203 X_2
*204 AND2_3
*205 NOT_40
*206 NOT_3
*207 DFF_2
*208 X_3
*209 NOR3_3
*210 AND2_1
*211 NOT_41
*212 NOT_8
*213 NOT_1
*214 DFF_1
*215 I420
*216 NOR2_10
*217 NAND2_17
*218 I414
*219 P_4
*220 I413
*221 P_3
*222 NOT_63
*223 I412
*224 NOR2_9
*225 I422
*226 NAND2_18
*227 NOT_43
*228 P_2
*229 NOT_62
*230 I410
*231 NOR2_8
*232 NOT_38
*233 I411
*234 P_1
*235 I344
*236 NOR2_7
*237 OR3_7
*238 OR3_6
*239 I387_1
*240 AND2_22
*241 I358
*242 NOT_36
*243 I301_3
*244 NOR2_6
*245 AND2_18
*246 I301_4
*247 AND2_19
*248 I308
*249 DFF_14
*250 I260
*251 NOR2_5
*252 NOR3_2
*253 OR3_5
*254 I244
*255 NOT_26
*256 I265
*257 AND2_12
*258 NOT_29
*259 NOT_20
*260 I245
*261 I246
*262 I2_3
*263 AND2_25
*264 I203_3
*265 NOR2_4
*266 AND2_14
*267 I203_4
*268 I210
*269 I162
*270 NOR2_3
*271 NOR3_1
*272 OR3_3
*273 I146
*274 NOT_16
*275 I167
*276 AND2_6
*277 NOT_19
*278 NOT_10
*279 I147
*280 I148
*281 I2_2
*282 AND2_24
*283 I105_3
*284 NOR2_2
*285 AND2_8
*286 I105_4
*287 I112
*288 I64
*289 NOR2_1
*290 NOR3_0
*291 OR3_1
*292 I48
*293 NOT_6
*294 I69
*295 AND2_0
*296 NOT_9
*297 NOT_0
*298 I49
*299 I50
*300 I2_1
*301 AND2_23
*302 I7_3
*303 NOR2_0
*304 AND2_2
*305 I7_4
*306 I14
*307 I627_1
*308 OR2_14
*309 I627_2
*310 OR2_15
*311 I533_4
*312 OR2_18
*313 I603_1
*314 OR2_12
*315 I603_2
*316 OR2_13
*317 I533_3
*318 OR2_17
*319 I579_1
*320 OR2_10
*321 I579_2
*322 OR2_11
*323 I533_2
*324 OR2_16
*325 I555_1
*326 OR2_8
*327 I555_2
*328 OR2_9
*329 I533_1
*330 NOT_5
*331 AND2_5
*332 I506
*333 I479
*334 I451
*335 I423
*336 I360
*337 NAND2_16
*338 NOT_37
*339 X_14
*340 NOT_35
*341 NOT_31
*342 I361
*343 X_13
*344 NAND2_15
*345 AND2_20
*346 NOT_32
*347 DFF_15
*348 I1_4
*349 AND2_21
*350 NOT_33
*351 I359
*352 NOT_30
*353 I384_1
*354 NAND2_14
*355 X_16
*356 DFF_12
*357 I355
*358 NAND2_12
*359 I366_1
*360 NAND2_13
*361 I357
*362 I307
*363 I363_1
*364 I306
*365 I1_3
*366 AND2_17
*367 NOT_25
*368 I262
*369 NOT_22
*370 I291_1
*371 I258
*372 NAND2_8
*373 I266_1
*374 I208
*375 I1_2
*376 AND2_11
*377 NOT_15
*378 I164
*379 NOT_12
*380 I193_1
*381 I160
*382 NAND2_4
*383 I168_1
*384 I110
*385 I66
*386 NOT_2
*387 I95_1
*388 I62
*389 NAND2_0
*390 I70_1
*391 I12
*392 I534_4
*393 OR2_19
*394 I534_5
*395 AND2_48
*396 I534_3
*397 I534_2
*398 I618
*399 NOT_74
*400 I622
*401 NOT_76
*402 I619
*403 NOT_75
*404 I623
*405 NOT_77
*406 I594
*407 NOT_70
*408 I598
*409 NOT_72
*410 I595
*411 NOT_71
*412 I599
*413 NOT_73
*414 I570
*415 NOT_66
*416 I574
*417 NOT_68
*418 I571
*419 NOT_67
*420 I575
*421 NOT_69
*422 I546
*423 I550
*424 NOT_64
*425 I547
*426 I551
*427 NOT_65
*428 I345
*429 I378_3
*430 OR2_7
*431 I378_4
*432 I309
*433 I284_3
*434 OR2_5
*435 I284_4
*436 I211
*437 I269_3
*438 OR2_4
*439 I269_4
*440 I209
*441 I264
*442 I186_3
*443 OR2_3
*444 I186_4
*445 I113
*446 I171_3
*447 OR2_2
*448 I171_4
*449 I111
*450 I166
*451 I88_3
*452 OR2_1
*453 I88_4
*454 I15
*455 I73_3
*456 OR2_0
*457 I73_4
*458 I13
*459 I68
*460 P_16
*461 P_12
*462 P_13
*463 P_8
*464 P_9
*465 P_5
*466 I408_3
*467 P_15
*468 P_14
*469 I408_2
*470 P_11
*471 P_10
*472 P_7
*473 P_6
*474 I378_1
*475 I378_2
*476 I301_1
*477 I301_2
*478 I284_1
*479 I284_2
*480 I203_1
*481 I203_2
*482 I269_1
*483 I269_2
*484 I186_1
*485 I186_2
*486 I105_1
*487 I105_2
*488 I171_1
*489 I171_2
*490 I88_1
*491 I88_2
*492 I7_1
*493 I7_2
*494 I73_1
*495 I73_2

*PORTS
*1 I *L 0.0 *S 0.0 0.0
*2 I *L 0.0 *S 0.0 0.0
*3 I *L 0.0 *S 0.0 0.0
*4 I *L 0.0 *S 0.0 0.0
*5 I *L 0.0 *S 0.0 0.0
*6 I *L 0.0 *S 0.0 0.0
*7 I *L 0.0 *S 0.0 0.0
*8 I *L 0.0 *S 0.0 0.0
*9 I *L 0.0 *S 0.0 0.0
*10 I *L 0.0 *S 0.0 0.0
*11 I *L 0.0 *S 0.0 0.0
*12 I *L 0.0 *S 0.0 0.0
*13 I *L 0.0 *S 0.0 0.0
*14 I *L 0.0 *S 0.0 0.0
*15 O *L 0.0 *S 0.0 0.0
*16 I *L 0.0 *S 0.0 0.0
*17 I *L 0.0 *S 0.0 0.0
*18 I *L 0.0 *S 0.0 0.0
*19 I *L 0.0 *S 0.0 0.0
*20 I *L 0.0 *S 0.0 0.0
*21 I *L 0.0 *S 0.0 0.0
*22 I *L 0.0 *S 0.0 0.0

*D_NET *23 0.152048

*CONN
*I *24:A1 I *L 1861.193 *C 16.245 8.07
*I *25:ZN O *L 0.0 *D AND2_X1 *C 17.195 8.07
*N *23:3 *C 16.245 8.07
*N *23:4 *C 16.245 8.07
*N *23:5 *C 17.195 8.07
*N *23:6 *C 17.195 8.07

*CAP
1 *24:A1 0.0
2 *25:ZN 0.009650961
3 *23:3 0.00538934
4 *23:4 0.06897056
5 *23:5 0.05838615
6 *23:6 0.009650961

*RES
1 *23:3 *24:A1 22.5
2 *23:4 *23:3 22.5
3 *23:5 *23:6 22.5
4 *23:6 *25:ZN 22.5
5 *23:4 *23:5 2.816081

*END

*D_NET *26 0.550058

*CONN
*I *24:A2 I *L 1913.615 *C 15.865 8.07
*I *27:ZN O *L 0.0 *D AND2_X1 *C 16.625 11.71
*N *26:3 *C 15.865 8.07
*N *26:4 *C 15.865 10.17
*N *26:5 *C 15.865 10.17
*N *26:6 *C 16.625 10.17
*N *26:7 *C 16.625 10.17
*N *26:8 *C 16.625 11.71

*CAP
1 *24:A2 0.0
2 *27:ZN 0.0
3 *26:3 0.137031
4 *26:4 0.04521687
5 *26:5 0.1344205
6 *26:6 0.04521687
7 *26:7 0.09278109
8 *26:8 0.09539168

*RES
1 *26:3 *24:A2 22.5
2 *26:4 *26:5 22.5
3 *26:6 *26:7 22.5
4 *26:8 *27:ZN 22.5
5 *26:3 *26:5 4.933162
6 *26:7 *26:8 3.893996
7 *26:4 *26:6 2.075105

*END

*D_NET *28 0.7347509

*CONN
*I *24:ZN O *L 0.0 *D NOR2_X1 *C 16.055 7.79
*I *29:A3 I *L 1861.175 *C 14.155 2.47
*N *28:3 *C 14.155 2.47
*N *28:4 *C 14.155 2.47
*N *28:5 *C 16.055 2.47
*N *28:6 *C 16.055 2.47
*N *28:7 *C 16.055 7.79
*N *28:8 *C 16.055 7.79
*N *28:9 *C 16.055 7.79

*CAP
1 *24:ZN 0.009603944
2 *29:A3 0.0
3 *28:3 0.01070988
4 *28:4 0.1613822
5 *28:5 0.1897961
6 *28:6 0.1454032
7 *28:7 0.1897961
8 *28:8 0.006630223
9 *28:9 0.02142924

*RES
1 *28:3 *29:A3 22.5
2 *28:4 *28:3 22.5
3 *28:5 *28:6 22.5
4 *28:7 *28:8 22.5
5 *28:8 *28:9 22.5
6 *28:9 *24:ZN 22.5
7 *28:4 *28:6 8.151969
8 *28:5 *28:7 10.0175

*END

*D_NET *30 0.5268314

*CONN
*I *31:A1 I *L 1861.193 *C 17.6 12.13
*I *32:ZN O *L 0.0 *D AND2_X1 *C 17.6 5.69
*N *30:3 *C 17.6 12.13
*N *30:4 *C 17.6 12.13
*N *30:5 *C 17.6 12.13
*N *30:6 *C 17.6 5.69
*N *30:7 *C 17.6 5.69
*N *30:8 *C 17.6 5.69

*CAP
1 *31:A1 0.0
2 *32:ZN 0.008632567
3 *30:3 0.004762782
4 *30:4 0.01393886
5 *30:5 0.2428381
6 *30:6 0.2335879
7 *30:7 0.00462183
8 *30:8 0.01844947

*RES
1 *30:3 *31:A1 22.5
2 *30:4 *30:3 22.5
3 *30:5 *30:4 22.5
4 *30:6 *30:7 22.5
5 *30:7 *30:8 22.5
6 *30:8 *32:ZN 22.5
7 *30:6 *30:5 12.06239

*END

*D_NET *33 0.2932045

*CONN
*I *31:A2 I *L 1913.615 *C 17.195 12.13
*I *34:ZN O *L 0.0 *D AND2_X1 *C 17.34 14.51
*N *33:3 *C 17.195 12.13
*N *33:4 *C 17.34 14.51
*N *33:5 *C 17.195 14.51

*CAP
1 *31:A2 0.0
2 *34:ZN 0.0
3 *33:3 0.1305675
4 *33:4 0.01345021
5 *33:5 0.1491867

*RES
1 *33:3 *31:A2 22.5
2 *33:4 *34:ZN 22.5
3 *33:3 *33:5 5.969456
4 *33:5 *33:4 0.1800555

*END

*D_NET *35 0.189229

*CONN
*I *31:ZN O *L 0.0 *D NOR2_X1 *C 17.385 11.71
*I *36:A3 I *L 1861.175 *C 16.815 10.87
*N *35:3 *C 17.385 11.71
*N *35:4 *C 16.815 10.87
*N *35:5 *C 16.815 11.71

*CAP
1 *31:ZN 0.0
2 *36:A3 0.0
3 *35:3 0.03728422
4 *35:4 0.05474579
5 *35:5 0.097199

*RES
1 *35:3 *31:ZN 22.5
2 *35:4 *36:A3 22.5
3 *35:4 *35:5 2.046412
4 *35:5 *35:3 1.274987

*END

*D_NET *37 0.3682943

*CONN
*I *38:A1 I *L 1861.193 *C 2.727 16.487
*I *39:ZN O *L 0.0 *D AND2_X1 *C 5.035 16.33
*N *37:3 *C 5.035 16.33
*N *37:4 *C 5.035 16.33
*N *37:5 *C 2.755 16.33
*N *37:6 *C 2.755 16.33
*N *37:7 *C 2.755 16.33

*CAP
1 *38:A1 0.008695258
2 *39:ZN 0.0
3 *37:3 0.004507662
4 *37:4 0.1672684
5 *37:5 0.1601632
6 *37:6 0.009482275
7 *37:7 0.01817753

*RES
1 *37:3 *39:ZN 22.5
2 *37:4 *37:3 22.5
3 *37:5 *37:6 22.5
4 *37:6 *37:7 22.5
5 *37:7 *38:A1 0.2800916
6 *37:5 *37:4 7.356478

*END

*D_NET *40 0.2345684

*CONN
*I *38:A2 I *L 1913.615 *C 2.375 16.47
*I *41:ZN O *L 0.0 *D AND2_X1 *C 3.47 16.89
*N *40:3 *C 2.375 16.47
*N *40:4 *C 2.375 16.61
*N *40:5 *C 2.375 16.61
*N *40:6 *C 3.47 16.61
*N *40:7 *C 3.47 16.61
*N *40:8 *C 3.47 16.89

*CAP
1 *38:A2 0.0
2 *41:ZN 0.0
3 *40:3 0.01598831
4 *40:4 0.07360759
5 *40:5 0.01337773
6 *40:6 0.07360759
7 *40:7 0.0276883
8 *40:8 0.03029888

*RES
1 *40:3 *38:A2 22.5
2 *40:4 *40:5 22.5
3 *40:6 *40:7 22.5
4 *40:8 *41:ZN 22.5
5 *40:3 *40:5 0.4528893
6 *40:7 *40:8 0.650256
7 *40:4 *40:6 4.107135

*END

*D_NET *42 1.267328

*CONN
*I *38:ZN O *L 0.0 *D NOR2_X1 *C 2.565 16.19
*I *43:A3 I *L 1861.175 *C 12.825 16.47
*N *42:3 *C 2.565 16.19
*N *42:4 *C 2.565 16.19
*N *42:5 *C 12.825 16.19
*N *42:6 *C 12.825 16.19
*N *42:7 *C 12.825 16.47

*CAP
1 *38:ZN 0.0
2 *43:A3 0.0
3 *42:3 0.007343591
4 *42:4 0.6053376
5 *42:5 0.5927989
6 *42:6 0.02961857
7 *42:7 0.03222915

*RES
1 *42:3 *38:ZN 22.5
2 *42:4 *42:3 22.5
3 *42:5 *42:6 22.5
4 *42:7 *43:A3 22.5
5 *42:6 *42:7 0.4219349
6 *42:4 *42:5 33.42286

*END

*D_NET *44 0.2404675

*CONN
*I *45:A1 I *L 1861.193 *C 1.235 9.33
*I *46:ZN O *L 0.0 *D AND2_X1 *C 0.665 9.33
*N *44:3 *C 1.235 9.33
*N *44:4 *C 1.235 9.05
*N *44:5 *C 1.235 9.05
*N *44:6 *C 0.665 9.05
*N *44:7 *C 0.665 9.05
*N *44:8 *C 0.665 9.33

*CAP
1 *45:A1 0.0
2 *46:ZN 0.0
3 *44:3 0.04472166
4 *44:4 0.03621073
5 *44:5 0.04211108
6 *44:6 0.03621073
7 *44:7 0.03930138
8 *44:8 0.04191195

*RES
1 *44:3 *45:A1 22.5
2 *44:4 *44:5 22.5
3 *44:6 *44:7 22.5
4 *44:8 *46:ZN 22.5
5 *44:7 *44:8 0.5099886
6 *44:5 *44:3 0.5921643
7 *44:6 *44:4 1.638087

*END

*D_NET *47 0.1554565

*CONN
*I *45:A2 I *L 1913.615 *C 0.855 9.33
*I *48:ZN O *L 0.0 *D AND2_X1 *C 0.655 7.98
*N *47:3 *C 0.855 9.33
*N *47:4 *C 0.855 8.49
*N *47:5 *C 0.855 8.49

*CAP
1 *45:A2 0.0
2 *48:ZN 0.01792238
3 *47:3 0.06109809
4 *47:4 0.06109809
5 *47:5 0.01533789

*RES
1 *47:3 *45:A2 22.5
2 *47:4 *47:5 22.5
3 *48:ZN *47:5 0.7665069
4 *47:4 *47:3 2.394415

*END

*D_NET *49 0.3159957

*CONN
*I *45:ZN O *L 0.0 *D NOR2_X1 *C 1.235 9.89
*I *50:A3 I *L 1861.175 *C 1.235 12.13
*N *49:3 *C 1.235 9.89
*N *49:4 *C 1.235 12.13

*CAP
1 *45:ZN 0.0
2 *50:A3 0.0
3 *49:3 0.1579979
4 *49:4 0.1579979

*RES
1 *49:3 *45:ZN 22.5
2 *49:4 *50:A3 22.5
3 *49:3 *49:4 7.057795

*END

*D_NET *51 1.282417

*CONN
*I *52:A1 I *L 1864.053 *C 9.215 2.47
*I *53:A2 I *L 1077.17 *C 7.125 0.93
*I *54:A I *L 1938.113 *C 10.545 3.73
*I *55:A I *L 1938.113 *C 6.175 2.47
*I *56:Q O *L 0.0 *D DFF_X1 *C 6.365 0.79
*N *51:6 *C 9.215 2.47
*N *51:7 *C 9.215 2.47
*N *51:8 *C 6.365 0.79
*N *51:9 *C 6.175 2.47
*N *51:10 *C 10.545 3.73
*N *51:11 *C 10.545 3.17
*N *51:12 *C 10.545 3.17
*N *51:13 *C 8.645 3.17
*N *51:14 *C 8.645 3.17
*N *51:15 *C 8.645 2.47
*N *51:16 *C 8.645 2.47
*N *51:17 *C 6.175 2.47
*N *51:18 *C 7.125 0.93
*N *51:19 *C 7.125 0.93
*N *51:20 *C 6.365 0.93
*N *51:21 *C 6.365 0.93
*N *51:22 *C 6.175 0.93

*CAP
1 *52:A1 0.0
2 *53:A2 0.0
3 *54:A 0.0
4 *55:A 0.0
5 *56:Q 0.0
6 *51:6 0.006260256
7 *51:7 0.04993354
8 *51:8 0.01279163
9 *51:9 0.09940837
10 *51:10 0.05837337
11 *51:11 0.1018387
12 *51:12 0.05576279
13 *51:13 0.1018387
14 *51:14 0.05615647
15 *51:15 0.2119819
16 *51:16 0.058754
17 *51:17 0.1683086
18 *51:18 0.006792444
19 *51:19 0.08482376
20 *51:20 0.07283624
21 *51:21 0.02236552
22 *51:22 0.1141904

*RES
1 *51:6 *52:A1 22.5
2 *51:7 *51:6 22.5
3 *51:8 *56:Q 22.5
4 *51:9 *55:A 22.5
5 *51:10 *54:A 22.5
6 *51:11 *51:12 22.5
7 *51:13 *51:14 22.5
8 *51:15 *51:16 22.5
9 *51:17 *51:9 22.5
10 *51:18 *53:A2 22.5
11 *51:19 *51:18 22.5
12 *51:20 *51:21 22.5
13 *51:22 *51:21 0.4981536
14 *51:22 *51:9 3.466604
15 *51:8 *51:21 0.337562
16 *51:16 *51:14 1.717509
17 *51:12 *51:10 1.042238
18 *51:17 *51:15 9.605562
19 *51:15 *51:7 2.066082
20 *51:20 *51:19 4.577022
21 *51:13 *51:11 4.724254

*END

*D_NET *57 0.5117886

*CONN
*I *52:A2 I *L 1844.203 *C 9.052 2.487
*I *58:A2 I *L 1913.615 *C 10.545 2.47
*I *59:ZN O *L 0.0 *D NAND2_X1 *C 11.685 2.19
*N *57:4 *C 11.685 2.19
*N *57:5 *C 11.685 2.61
*N *57:6 *C 11.685 2.61
*N *57:7 *C 10.545 2.47
*N *57:8 *C 10.545 2.61
*N *57:9 *C 10.545 2.61
*N *57:10 *C 9.025 2.19
*N *57:11 *C 9.025 2.19
*N *57:12 *C 9.025 2.33
*N *57:13 *C 9.025 2.33
*N *57:14 *C 9.405 2.19
*N *57:15 *C 9.405 2.61

*CAP
1 *52:A2 0.006537049
2 *58:A2 0.0
3 *59:ZN 0.0
4 *57:4 0.03301351
5 *57:5 0.0725363
6 *57:6 0.03300047
7 *57:7 0.01969959
8 *57:8 0.1467037
9 *57:9 0.01708901
10 *57:10 0.02373613
11 *57:11 0.00333058
12 *57:12 0.003356668
13 *57:13 0.001368064
14 *57:14 0.05179188
15 *57:15 0.09962563

*RES
1 *57:4 *59:ZN 22.5
2 *57:5 *57:6 22.5
3 *57:7 *58:A2 22.5
4 *57:8 *57:9 22.5
5 *57:10 *57:11 22.5
6 *52:A2 *57:13 0.1487859
7 *57:12 *57:13 22.5
8 *57:11 *57:12 0.1311312
9 *57:7 *57:9 0.4534854
10 *57:4 *57:6 1.345078
11 *57:10 *57:14 1.122292
12 *57:14 *57:15 1.248308
13 *57:15 *57:8 3.329077
14 *57:8 *57:5 3.299002

*END

*D_NET *60 0.1888073

*CONN
*I *52:A3 I *L 1885.075 *C 8.835 2.47
*I *61:ZN O *L 0.0 *D INV_X1 *C 9.215 3.31
*N *60:3 *C 8.835 2.47
*N *60:4 *C 9.215 3.31
*N *60:5 *C 8.835 2.89
*N *60:6 *C 9.025 2.89
*N *60:7 *C 9.025 3.31

*CAP
1 *52:A3 0.0
2 *61:ZN 0.0
3 *60:3 0.03999564
4 *60:4 0.02005336
5 *60:5 0.05397134
6 *60:6 0.03177017
7 *60:7 0.04301681

*RES
1 *60:3 *52:A3 22.5
2 *60:4 *61:ZN 22.5
3 *60:3 *60:5 1.1696
4 *60:5 *60:6 0.5112941
5 *60:6 *60:7 1.226286
6 *60:7 *60:4 0.305997

*END

*D_NET *62 0.1933847

*CONN
*I *52:ZN O *L 0.0 *D NOR3_X1 *C 9.405 2.75
*I *63:A2 I *L 1092.433 *C 9.975 2.47
*N *62:3 *C 9.405 2.75
*N *62:4 *C 9.405 2.75
*N *62:5 *C 9.975 2.75
*N *62:6 *C 9.975 2.75
*N *62:7 *C 9.975 2.47

*CAP
1 *52:ZN 0.0
2 *63:A2 0.0
3 *62:3 0.006260256
4 *62:4 0.06379658
5 *62:5 0.05234125
6 *62:6 0.03418802
7 *62:7 0.03679861

*RES
1 *62:3 *52:ZN 22.5
2 *62:4 *62:3 22.5
3 *62:5 *62:6 22.5
4 *62:7 *63:A2 22.5
5 *62:7 *62:6 0.4266714
6 *62:4 *62:5 3.084627

*END

*D_NET *64 0.1439853

*CONN
*I *58:A1 I *L 1861.193 *C 10.925 2.47
*I *54:ZN O *L 0.0 *D INV_X1 *C 10.735 3.31
*N *64:3 *C 10.925 2.47
*N *64:4 *C 10.735 3.31
*N *64:5 *C 10.735 2.47

*CAP
1 *58:A1 0.0
2 *54:ZN 0.0
3 *64:3 0.01813978
4 *64:4 0.05126841
5 *64:5 0.07457717

*RES
1 *64:3 *58:A1 22.5
2 *64:4 *54:ZN 22.5
3 *64:5 *64:3 0.7522424
4 *64:5 *64:4 2.440948

*END

*D_NET *65 0.2772571

*CONN
*I *58:ZN O *L 0.0 *D NOR2_X1 *C 10.735 2.19
*I *66:A2 I *L 1092.433 *C 11.115 0.93
*N *65:3 *C 10.735 2.19
*N *65:4 *C 10.735 1.35
*N *65:5 *C 10.735 1.35
*N *65:6 *C 11.115 1.35
*N *65:7 *C 11.115 1.35
*N *65:8 *C 11.115 0.93

*CAP
1 *58:ZN 0.0
2 *66:A2 0.0
3 *65:3 0.06683927
4 *65:4 0.0339733
5 *65:5 0.06422868
6 *65:6 0.0339733
7 *65:7 0.037816
8 *65:8 0.04042659

*RES
1 *65:3 *58:ZN 22.5
2 *65:4 *65:5 22.5
3 *65:6 *65:7 22.5
4 *65:8 *66:A2 22.5
5 *65:5 *65:3 2.221643
6 *65:8 *65:7 0.7314304
7 *65:4 *65:6 1.868031

*END

*D_NET *67 1.308294

*CONN
*I *68:A1 I *L 1861.193 *C 12.797 3.712
*I *59:A2 I *L 1883.517 *C 11.522 2.487
*I *69:ZN O *L 0.0 *D INV_X1 *C 9.025 1.49
*N *67:4 *C 9.615 4.85
*N *67:5 *C 9.615 4.85
*N *67:6 *C 12.825 4.85
*N *67:7 *C 12.825 4.85
*N *67:8 *C 12.825 3.87
*N *67:9 *C 12.825 3.87
*N *67:10 *C 11.115 2.47
*N *67:11 *C 11.115 2.47
*N *67:12 *C 11.115 2.89
*N *67:13 *C 11.115 2.89
*N *67:14 *C 9.615 2.89
*N *67:15 *C 9.615 2.89
*N *67:16 *C 9.025 1.49
*N *67:17 *C 9.025 1.49
*N *67:18 *C 9.335 1.49
*N *67:19 *C 9.335 1.49
*N *67:20 *C 9.335 2.33
*N *67:21 *C 9.615 2.33

*CAP
1 *68:A1 0.007054694
2 *59:A2 0.02849043
3 *69:ZN 0.0
4 *67:4 0.08635404
5 *67:5 0.2211213
6 *67:6 0.2211954
7 *67:7 0.07016461
8 *67:8 0.07019071
9 *67:9 0.001885708
10 *67:10 0.04033286
11 *67:11 0.02590594
12 *67:12 0.09480456
13 *67:13 0.03772228
14 *67:14 0.1071915
15 *67:15 0.0947305
16 *67:16 0.008771366
17 *67:17 0.03899419
18 *67:18 0.04053649
19 *67:19 0.02495368
20 *67:20 0.05643111
21 *67:21 0.03146288

*RES
1 *67:4 *67:5 22.5
2 *67:6 *67:7 22.5
3 *68:A1 *67:9 0.149193
4 *67:8 *67:9 22.5
5 *67:10 *67:11 22.5
6 *67:12 *67:13 22.5
7 *67:14 *67:15 22.5
8 *67:16 *69:ZN 22.5
9 *67:17 *67:16 22.5
10 *67:18 *67:19 22.5
11 *67:11 *59:A2 1.01327
12 *67:10 *67:13 0.9752405
13 *67:8 *67:7 2.4766
14 *67:17 *67:19 1.206466
15 *67:15 *67:12 4.543566
16 *67:5 *67:6 12.45128
17 *67:18 *67:20 1.789927
18 *67:20 *67:21 0.5116548
19 *67:21 *67:14 0.8947691
20 *67:14 *67:4 3.710488

*END

*D_NET *70 0.3915031

*CONN
*I *68:A2 I *L 1913.615 *C 12.445 3.73
*I *71:ZN O *L 0.0 *D NAND2_X1 *C 13.965 2.89
*I *72:A I *L 1938.113 *C 13.015 3.73
*N *70:4 *C 13.015 3.73
*N *70:5 *C 12.445 3.73
*N *70:6 *C 12.635 3.73
*N *70:7 *C 12.635 3.73
*N *70:8 *C 13.015 3.73
*N *70:9 *C 13.965 2.89
*N *70:10 *C 13.015 3.45
*N *70:11 *C 14.155 3.45
*N *70:12 *C 14.155 2.89

*CAP
1 *68:A2 0.0
2 *71:ZN 0.0
3 *72:A 0.0
4 *70:4 0.02089867
5 *70:5 0.02453969
6 *70:6 0.0273619
7 *70:7 0.02192911
8 *70:8 0.0273619
9 *70:9 0.02429147
10 *70:10 0.0962804
11 *70:11 0.09607536
12 *70:12 0.05276466

*RES
1 *70:4 *72:A 22.5
2 *70:5 *68:A2 22.5
3 *70:6 *70:7 22.5
4 *70:8 *70:4 22.5
5 *70:9 *71:ZN 22.5
6 *70:5 *70:7 0.5128052
7 *70:10 *70:11 3.15401
8 *70:10 *70:4 0.5768524
9 *70:9 *70:12 0.4844952
10 *70:12 *70:11 1.241657
11 *70:6 *70:8 1.200017

*END

*D_NET *73 0.1618259

*CONN
*I *68:ZN O *L 0.0 *D NOR2_X1 *C 12.635 3.31
*I *74:A2 I *L 1092.433 *C 12.255 2.47
*N *73:3 *C 12.255 2.47
*N *73:4 *C 12.635 3.31
*N *73:5 *C 12.445 2.47
*N *73:6 *C 12.445 3.31

*CAP
1 *68:ZN 0.0
2 *74:A2 0.0
3 *73:3 0.02263525
4 *73:4 0.01662547
5 *73:5 0.06428748
6 *73:6 0.05827769

*RES
1 *73:3 *74:A2 22.5
2 *73:4 *68:ZN 22.5
3 *73:3 *73:5 0.5128052
4 *73:5 *73:6 2.429327
5 *73:6 *73:4 0.2294129

*END

*D_NET *75 0.2207987

*CONN
*I *76:A1 I *L 1861.193 *C 15.675 3.73
*I *77:ZN O *L 0.0 *D INV_X1 *C 15.105 3.31
*N *75:3 *C 15.675 3.73
*N *75:4 *C 15.675 3.31
*N *75:5 *C 15.675 3.31
*N *75:6 *C 15.105 3.31
*N *75:7 *C 15.105 3.31

*CAP
1 *76:A1 0.0
2 *77:ZN 0.01205625
3 *75:3 0.05371634
4 *75:4 0.04593206
5 *75:5 0.05110576
6 *75:6 0.04593206
7 *75:7 0.01205625

*RES
1 *75:3 *76:A1 22.5
2 *75:4 *75:5 22.5
3 *75:6 *75:7 22.5
4 *75:7 *77:ZN 22.5
5 *75:5 *75:3 0.935917
6 *75:6 *75:4 2.226147

*END

*D_NET *78 0.5097769

*CONN
*I *76:A2 I *L 1913.615 *C 15.295 3.73
*I *71:A1 I *L 1841.374 *C 13.965 2.47
*I *79:ZN O *L 0.0 *D INV_X1 *C 15.105 1.91
*N *78:4 *C 13.965 2.47
*N *78:5 *C 13.965 2.19
*N *78:6 *C 13.965 2.19
*N *78:7 *C 15.105 2.19
*N *78:8 *C 15.105 2.19
*N *78:9 *C 15.105 1.91
*N *78:10 *C 15.295 3.73
*N *78:11 *C 15.295 2.19

*CAP
1 *76:A2 0.0
2 *71:A1 0.0
3 *79:ZN 0.0
4 *78:4 0.03635142
5 *78:5 0.09212093
6 *78:6 0.03374083
7 *78:7 0.09212093
8 *78:8 0.02503985
9 *78:9 0.01765402
10 *78:10 0.100084
11 *78:11 0.1126649

*RES
1 *78:4 *71:A1 22.5
2 *78:5 *78:6 22.5
3 *78:7 *78:8 22.5
4 *78:9 *79:ZN 22.5
5 *78:10 *76:A2 22.5
6 *78:6 *78:4 0.4450867
7 *78:9 *78:8 0.8106756
8 *78:8 *78:11 0.5172555
9 *78:11 *78:10 3.794844
10 *78:5 *78:7 4.918977

*END

*D_NET *80 0.1230135

*CONN
*I *76:ZN O *L 0.0 *D NOR2_X1 *C 15.675 4.15
*I *81:A2 I *L 1092.433 *C 16.055 3.73
*N *80:3 *C 15.675 4.15
*N *80:4 *C 16.055 3.73
*N *80:5 *C 16.055 4.15

*CAP
1 *76:ZN 0.0
2 *81:A2 0.0
3 *80:3 0.02940756
4 *80:4 0.02951471
5 *80:5 0.06409126

*RES
1 *80:3 *76:ZN 22.5
2 *80:4 *81:A2 22.5
3 *80:3 *80:5 1.358822
4 *80:4 *80:5 1.262124

*END

*D_NET *82 0.2614335

*CONN
*I *83:A1 I *L 1861.193 *C 14.317 6.512
*I *84:ZN O *L 0.0 *D NOR3_X1 *C 13.575 8.447
*N *82:3 *C 13.585 7.51
*N *82:4 *C 13.585 7.51
*N *82:5 *C 14.345 6.67
*N *82:6 *C 14.345 6.67
*N *82:7 *C 14.345 7.51

*CAP
1 *83:A1 0.006701496
2 *84:ZN 0.02989865
3 *82:3 0.05333588
4 *82:4 0.02731415
5 *82:5 0.04078073
6 *82:6 0.001532511
7 *82:7 0.1018701

*RES
1 *82:3 *82:4 22.5
2 *83:A1 *82:6 0.1487859
3 *82:5 *82:6 22.5
4 *82:4 *84:ZN 0.7038764
5 *82:3 *82:7 1.937981
6 *82:5 *82:7 2.369084

*END

*D_NET *85 2.048836

*CONN
*I *83:A2 I *L 1913.615 *C 13.965 6.53
*I *86:A1 I *L 1841.374 *C 8.435 5.27
*I *87:A1 I *L 1841.374 *C 11.115 8.07
*I *88:A1 I *L 1060.224 *C 8.265 3.73
*I *89:A I *L 1938.113 *C 14.345 5.27
*I *90:A I *L 1938.113 *C 9.405 6.53
*I *91:Q O *L 0.0 *D DFF_X1 *C 13.94 4.85
*N *85:8 *C 14.345 6.39
*N *85:9 *C 14.345 6.39
*N *85:10 *C 13.965 6.39
*N *85:11 *C 13.965 6.39
*N *85:12 *C 13.965 6.53
*N *85:13 *C 8.265 3.73
*N *85:14 *C 8.435 5.27
*N *85:15 *C 9.405 6.53
*N *85:16 *C 8.835 4.71
*N *85:17 *C 8.835 4.71
*N *85:18 *C 13.94 4.85
*N *85:19 *C 13.94 4.85
*N *85:20 *C 8.835 5.27
*N *85:21 *C 8.835 5.27
*N *85:22 *C 11.115 8.07
*N *85:23 *C 11.115 7.79
*N *85:24 *C 11.115 7.79
*N *85:25 *C 9.405 7.79
*N *85:26 *C 9.405 7.79
*N *85:27 *C 14.345 4.85
*N *85:28 *C 14.345 4.85
*N *85:29 *C 14.345 5.27
*N *85:30 *C 8.265 4.57
*N *85:31 *C 8.455 4.57
*N *85:32 *C 8.835 6.39
*N *85:33 *C 9.405 6.39
*N *85:34 *C 13.965 4.71

*CAP
1 *83:A2 0.0
2 *86:A1 0.02502395
3 *87:A1 0.0
4 *88:A1 0.0
5 *89:A 0.0
6 *90:A 0.0
7 *91:Q 0.0
8 *85:8 0.04123519
9 *85:9 0.0688011
10 *85:10 0.04123519
11 *85:11 0.011385
12 *85:12 0.01399558
13 *85:13 0.06838018
14 *85:14 0.03121923
15 *85:15 0.09031644
16 *85:16 0.326471
17 *85:17 0.03020308
18 *85:18 0.005256216
19 *85:19 0.0354632
20 *85:20 0.08455132
21 *85:21 0.02502395
22 *85:22 0.040799
23 *85:23 0.1286349
24 *85:24 0.03818842
25 *85:25 0.1286349
26 *85:26 0.08266036
27 *85:27 0.01922819
28 *85:28 0.03030797
29 *85:29 0.1069147
30 *85:30 0.08094475
31 *85:31 0.04378379
32 *85:32 0.07971051
33 *85:33 0.03301835
34 *85:34 0.3374498

*RES
1 *85:8 *85:9 22.5
2 *85:10 *85:11 22.5
3 *85:12 *83:A2 22.5
4 *85:13 *88:A1 22.5
5 *85:14 *86:A1 22.5
6 *85:15 *90:A 22.5
7 *85:16 *85:17 22.5
8 *85:18 *91:Q 22.5
9 *85:19 *85:18 22.5
10 *85:20 *85:21 22.5
11 *85:22 *87:A1 22.5
12 *85:23 *85:24 22.5
13 *85:25 *85:26 22.5
14 *85:27 *85:28 22.5
15 *85:29 *89:A 22.5
16 *86:A1 *85:21 1.063308
17 *85:13 *85:30 2.708115
18 *85:30 *85:31 0.5062225
19 *85:31 *85:14 1.860588
20 *85:17 *85:20 1.153158
21 *85:20 *85:32 2.718157
22 *85:32 *85:33 1.414901
23 *85:33 *85:15 0.2430944
24 *85:15 *85:26 3.111955
25 *85:24 *85:22 0.45549
26 *85:11 *85:12 0.4562277
27 *85:28 *85:29 0.918741
28 *85:29 *85:9 2.756223
29 *85:16 *85:34 17.3223
30 *85:25 *85:23 6.838616
31 *85:34 *85:19 0.2937647
32 *85:19 *85:27 1.051427
33 *85:10 *85:8 2.307424

*END

*D_NET *92 0.1708975

*CONN
*I *83:ZN O *L 0.0 *D NOR2_X1 *C 14.155 6.81
*I *93:A2 I *L 1092.433 *C 13.445 6.53
*N *92:3 *C 14.155 6.81
*N *92:4 *C 14.155 6.81
*N *92:5 *C 13.445 6.81
*N *92:6 *C 13.445 6.81
*N *92:7 *C 13.445 6.53

*CAP
1 *83:ZN 0.0
2 *93:A2 0.0
3 *92:3 0.008081222
4 *92:4 0.05842415
5 *92:5 0.04514785
6 *92:6 0.02831687
7 *92:7 0.03092746

*RES
1 *92:3 *83:ZN 22.5
2 *92:4 *92:3 22.5
3 *92:5 *92:6 22.5
4 *92:7 *93:A2 22.5
5 *92:7 *92:6 0.6384684
6 *92:5 *92:4 1.95965

*END

*D_NET *94 1.173384

*CONN
*I *84:A1 I *L 1864.053 *C 13.395 8.07
*I *95:A2 I *L 1883.517 *C 12.265 9.33
*I *96:A2 I *L 1033.271 *C 13.015 9.33
*I *97:A I *L 1938.113 *C 13.965 10.87
*I *98:A I *L 1938.113 *C 12.065 8.07
*I *99:Q O *L 0.0 *D DFF_X1 *C 13.015 6.95
*N *94:7 *C 13.395 8.07
*N *94:8 *C 13.395 7.79
*N *94:9 *C 13.395 7.79
*N *94:10 *C 12.265 9.33
*N *94:11 *C 13.015 9.89
*N *94:12 *C 13.015 9.89
*N *94:13 *C 13.015 9.33
*N *94:14 *C 13.965 10.87
*N *94:15 *C 14.155 9.89
*N *94:16 *C 14.155 9.89
*N *94:17 *C 13.015 6.95
*N *94:18 *C 13.205 7.37
*N *94:19 *C 13.205 7.37
*N *94:20 *C 13.255 7.37
*N *94:21 *C 13.255 7.79
*N *94:22 *C 13.255 7.79
*N *94:23 *C 12.255 9.89
*N *94:24 *C 12.255 9.89
*N *94:25 *C 12.065 7.79
*N *94:26 *C 12.065 7.79
*N *94:27 *C 12.065 8.07
*N *94:28 *C 12.255 8.07
*N *94:29 *C 13.205 6.95
*N *94:30 *C 13.965 10.45
*N *94:31 *C 14.155 10.45

*CAP
1 *84:A1 0.0
2 *95:A2 0.0
3 *96:A2 0.0
4 *97:A 0.0
5 *98:A 0.0
6 *99:Q 0.0
7 *94:7 0.03147736
8 *94:8 0.008507516
9 *94:9 0.02886678
10 *94:10 0.103472
11 *94:11 0.09568458
12 *94:12 0.04767646
13 *94:13 0.04770255
14 *94:14 0.0301859
15 *94:15 0.05370304
16 *94:16 0.03737262
17 *94:17 0.01534556
18 *94:18 0.004910063
19 *94:19 0.02547319
20 *94:20 0.04917874
21 *94:21 0.03899953
22 *94:22 0.1092469
23 *94:23 0.03678647
24 *94:24 0.03669223
25 *94:25 0.0956184
26 *94:26 0.01648742
27 *94:27 0.0307691
28 *94:28 0.07584032
29 *94:29 0.04859832
30 *94:30 0.04749579
31 *94:31 0.05729308

*RES
1 *94:7 *84:A1 22.5
2 *94:8 *94:9 22.5
3 *94:10 *95:A2 22.5
4 *94:11 *94:12 22.5
5 *94:13 *96:A2 22.5
6 *94:14 *97:A 22.5
7 *94:15 *94:16 22.5
8 *94:17 *99:Q 22.5
9 *94:18 *94:19 22.5
10 *94:20 *94:18 22.5
11 *94:21 *94:22 22.5
12 *94:23 *94:24 22.5
13 *94:25 *94:26 22.5
14 *94:27 *98:A 22.5
15 *94:26 *94:27 0.5619287
16 *94:27 *94:28 0.6072693
17 *94:28 *94:10 3.618192
18 *94:10 *94:24 1.254427
19 *94:17 *94:29 0.8151069
20 *94:13 *94:12 1.596975
21 *94:29 *94:19 0.8228505
22 *94:9 *94:7 0.516764
23 *94:30 *94:31 0.7404124
24 *94:30 *94:14 1.071425
25 *94:16 *94:31 1.340511
26 *94:25 *94:22 5.936333
27 *94:23 *94:11 1.913475
28 *94:11 *94:15 2.789524
29 *94:22 *94:8 0.6107222
30 *94:20 *94:21 1.021571

*END

*D_NET *100 1.826904

*CONN
*I *84:A2 I *L 1844.203 *C 13.205 8.07
*I *87:A2 I *L 1883.517 *C 10.735 8.07
*I *101:A1 I *L 1060.224 *C 3.895 5.27
*I *102:A I *L 1938.113 *C 13.775 8.07
*I *103:A I *L 1938.113 *C 5.605 6.53
*I *104:Q O *L 0.0 *D DFF_X1 *C 3.68 6.25
*N *100:7 *C 13.775 8.07
*N *100:8 *C 10.735 8.07
*N *100:9 *C 3.895 5.27
*N *100:10 *C 5.605 6.53
*N *100:11 *C 10.735 7.93
*N *100:12 *C 10.735 7.93
*N *100:13 *C 13.775 7.93
*N *100:14 *C 13.775 7.93
*N *100:15 *C 3.68 6.25
*N *100:16 *C 3.895 6.53
*N *100:17 *C 3.895 6.53
*N *100:18 *C 5.605 6.53
*N *100:19 *C 10.735 7.51
*N *100:20 *C 10.735 7.51
*N *100:21 *C 5.605 7.51
*N *100:22 *C 5.605 7.51
*N *100:23 *C 13.205 8.07
*N *100:24 *C 3.895 6.25
*N *100:25 *C 13.205 8.21
*N *100:26 *C 13.775 8.21

*CAP
1 *84:A2 0.0
2 *87:A2 0.0
3 *101:A1 0.0
4 *102:A 0.0
5 *103:A 0.0
6 *104:Q 0.0
7 *100:7 0.01838142
8 *100:8 0.01219477
9 *100:9 0.06246928
10 *100:10 0.07181272
11 *100:11 0.2089835
12 *100:12 0.04695623
13 *100:13 0.2089835
14 *100:14 0.01002759
15 *100:15 0.02418499
16 *100:16 0.1049555
17 *100:17 0.02002682
18 *100:18 0.1049555
19 *100:19 0.3098269
20 *100:20 0.03217696
21 *100:21 0.3098269
22 *100:22 0.07181272
23 *100:23 0.012172
24 *100:24 0.1170451
25 *100:25 0.04585474
26 *100:26 0.03425701

*RES
1 *100:7 *102:A 22.5
2 *100:8 *87:A2 22.5
3 *100:9 *101:A1 22.5
4 *100:10 *103:A 22.5
5 *100:11 *100:12 22.5
6 *100:13 *100:14 22.5
7 *100:15 *104:Q 22.5
8 *100:16 *100:17 22.5
9 *100:18 *100:10 22.5
10 *100:19 *100:20 22.5
11 *100:21 *100:22 22.5
12 *100:23 *84:A2 22.5
13 *100:15 *100:24 0.5802796
14 *100:9 *100:24 2.229925
15 *100:24 *100:17 0.4288318
16 *100:10 *100:22 2.132459
17 *100:12 *100:8 0.3237363
18 *100:20 *100:12 0.8208319
19 *100:23 *100:25 0.6251158
20 *100:25 *100:26 1.496105
21 *100:14 *100:7 0.3933935
22 *100:7 *100:26 0.2584571
23 *100:16 *100:18 4.977065
24 *100:21 *100:19 17.79269
25 *100:11 *100:13 11.89271

*END

*D_NET *105 1.973147

*CONN
*I *84:A3 I *L 1885.075 *C 13.015 8.07
*I *106:A1 I *L 1864.053 *C 14.725 10.87
*I *107:A1 I *L 1060.224 *C 14.345 12.13
*I *108:A I *L 1938.113 *C 15.675 9.33
*I *109:A I *L 1938.113 *C 13.775 9.33
*I *110:A I *L 1938.113 *C 13.205 13.67
*I *111:Q O *L 0.0 *D DFF_X1 *C 17.575 13.53
*N *105:8 *C 13.015 8.07
*N *105:9 *C 13.015 8.07
*N *105:10 *C 14.655 8.07
*N *105:11 *C 14.655 8.07
*N *105:12 *C 14.655 9.05
*N *105:13 *C 14.655 9.05
*N *105:14 *C 14.725 10.87
*N *105:15 *C 14.345 12.13
*N *105:16 *C 14.345 11.85
*N *105:17 *C 14.345 11.85
*N *105:18 *C 14.725 11.85
*N *105:19 *C 14.725 11.85
*N *105:20 *C 13.205 13.53
*N *105:21 *C 13.205 13.53
*N *105:22 *C 13.205 13.67
*N *105:23 *C 13.775 9.33
*N *105:24 *C 13.775 9.05
*N *105:25 *C 13.775 9.05
*N *105:26 *C 15.675 9.33
*N *105:27 *C 17.575 13.53
*N *105:28 *C 17.575 13.53
*N *105:29 *C 14.725 13.53
*N *105:30 *C 14.725 13.53
*N *105:31 *C 15.485 9.05
*N *105:32 *C 15.485 9.05
*N *105:33 *C 14.725 10.59
*N *105:34 *C 14.725 10.59
*N *105:35 *C 15.485 10.59
*N *105:36 *C 15.485 10.59
*N *105:37 *C 15.675 9.05

*CAP
1 *84:A3 0.0
2 *106:A1 0.0
3 *107:A1 0.0
4 *108:A 0.0
5 *109:A 0.0
6 *110:A 0.0
7 *111:Q 0.0
8 *105:8 0.006138528
9 *105:9 0.1265199
10 *105:10 0.06693217
11 *105:11 0.1151123
12 *105:12 0.06693217
13 *105:13 0.1095535
14 *105:14 0.08002702
15 *105:15 0.02909971
16 *105:16 0.02234137
17 *105:17 0.02648913
18 *105:18 0.02234137