*SPEF "1481-1998"
*DESIGN "s5378"
*DATE "Fri Aug  1 15:47:08 2014"
*VENDOR "Synopsys, Inc."
*PROGRAM "icc_shell"
*VERSION "G-2012.06-ICC-SP5"
*DESIGN_FLOW "PIN_CAP NONE"
*DIVIDER /
*DELIMITER :
*BUS_DELIMITER [ ]
*T_UNIT 1 NS
*C_UNIT 1 FF
*R_UNIT 1 OHM
*L_UNIT 1 HENRY

*NAME_MAP
*1 n3068gat
*2 n3067gat
*3 n3066gat
*4 n3065gat
*5 CK
*6 VDD
*7 VSS
*8 n3076gat
*9 n3075gat
*10 n3074gat
*11 n3073gat
*12 n3072gat
*13 n3071gat
*14 n3070gat
*15 n3069gat
*16 n3084gat
*17 n3083gat
*18 n3082gat
*19 n3081gat
*20 n3080gat
*21 n3079gat
*22 n3078gat
*23 n3077gat
*24 n3092gat
*25 n3091gat
*26 n3090gat
*27 n3089gat
*28 n3088gat
*29 n3087gat
*30 n3086gat
*31 n3085gat
*32 n3104gat
*33 n3100gat
*34 n3099gat
*35 n3098gat
*36 n3097gat
*37 n3095gat
*38 n3094gat
*39 n3093gat
*40 n3112gat
*41 n3111gat
*42 n3110gat
*43 n3109gat
*44 n3108gat
*45 n3107gat
*46 n3106gat
*47 n3105gat
*48 n3120gat
*49 n3119gat
*50 n3118gat
*51 n3117gat
*52 n3116gat
*53 n3115gat
*54 n3114gat
*55 n3113gat
*56 n3128gat
*57 n3127gat
*58 n3126gat
*59 n3125gat
*60 n3124gat
*61 n3123gat
*62 n3122gat
*63 n3121gat
*64 n3136gat
*65 n3135gat
*66 n3134gat
*67 n3133gat
*68 n3132gat
*69 n3131gat
*70 n3130gat
*71 n3129gat
*72 n3144gat
*73 n3143gat
*74 n3142gat
*75 n3141gat
*76 n3140gat
*77 n3139gat
*78 n3138gat
*79 n3137gat
*80 n3152gat
*81 n3151gat
*82 n3150gat
*83 n3149gat
*84 n3148gat
*85 n3147gat
*86 n3146gat
*87 n3145gat
*88 n2720gat
*89 NOR2_510
*90 NOR2_508
*91 NOR2_54
*92 NOT_441
*93 n14gat
*94 NOT_1673
*95 n13gat
*96 OR3_62
*97 n76gat
*98 NOR2_509
*99 NOT_1672
*100 n2784gat
*101 NOR2_507
*102 NOR2_300
*103 NOR2_49
*104 NOT_443
*105 n77gat
*106 n71gat
*107 NOT_1668
*108 n70gat
*109 OR3_61
*110 n67gat
*111 NOT_1667
*112 n73gat
*113 n1869gat
*114 NOR2_506
*115 NOR3_225
*116 NOR2_355
*117 NOR3_189
*118 NOT_1187
*119 NOT_1185
*120 NOT_1127
*121 n1757gat
*122 NOR2_505
*123 n1745gat
*124 NOT_1656
*125 n1773gat
*126 NOR3_216
*127 NOR3_215
*128 NOR2_229
*129 NOT_1105
*130 DFF_133
*131 n1769gat
*132 NOT_1421
*133 n1180gat
*134 NOR2_504
*135 NOR2_478
*136 NOT_1557
*137 n455gat
*138 NOR2_496
*139 NOT_1584
*140 NOR2_503
*141 NOR2_502
*142 NOR2_501
*143 NOR2_500
*144 NOR2_499
*145 NOR2_498
*146 NOR2_497
*147 n1182gat
*148 OR2_117
*149 n894gat
*150 NOR2_473
*151 NOT_1552
*152 n1005gat
*153 OR2_116
*154 n897gat
*155 NOR2_463
*156 NOT_1547
*157 n1010gat
*158 OR2_115
*159 n1179gat
*160 NOR2_448
*161 NOT_1542
*162 n1181gat
*163 OR2_114
*164 n898gat
*165 NOR2_443
*166 NOT_1537
*167 n1011gat
*168 OR2_113
*169 n888gat
*170 NOR2_433
*171 NOT_1532
*172 n1030gat
*173 OR2_112
*174 n1002gat
*175 NOR2_418
*176 NOT_1527
*177 n1031gat
*178 OR2_111
*179 n879gat
*180 NOR2_404
*181 NOR2_403
*182 n1028gat
*183 OR2_110
*184 n978gat
*185 NOR2_490
*186 NOR2_489
*187 n1029gat
*188 OR2_109
*189 n419gat
*190 NOR2_413
*191 NOR2_412
*192 NOR2_495
*193 NOR2_483
*194 NOR2_468
*195 NOR2_458
*196 NOR2_453
*197 NOR2_438
*198 NOR2_428
*199 NOR2_423
*200 n1252gat
*201 NOR2_494
*202 n1000gat
*203 OR2_108
*204 n1199gat
*205 NOR2_491
*206 n2962gat
*207 OR2_107
*208 n1007gat
*209 NOR2_406
*210 NOT_1521
*211 NOR2_493
*212 NOR2_480
*213 NOR2_465
*214 NOR2_455
*215 NOR2_450
*216 NOR2_435
*217 NOR2_425
*218 NOR2_420
*219 n1025gat
*220 NOT_282
*221 NOT_281
*222 n1173gat
*223 n829gat
*224 NOR2_492
*225 NOT_501
*226 NOT_500
*227 n1006gat
*228 NOR2_407
*229 NOT_1522
*230 NOR2_481
*231 NOR2_464
*232 NOR2_454
*233 NOR2_449
*234 NOR2_434
*235 NOR2_426
*236 NOR2_419
*237 n1176gat
*238 n1123gat
*239 NOR2_405
*240 NOT_1520
*241 NOR2_479
*242 NOR2_466
*243 NOR2_456
*244 NOR2_451
*245 NOR2_436
*246 NOR2_424
*247 NOR2_421
*248 n1284gat
*249 NOR2_87
*250 NOT_745
*251 n420gat
*252 NOR2_394
*253 n1004gat
*254 n2944gat
*255 OR2_106
*256 n2945gat
*257 OR4_49
*258 n1601gat
*259 NOR2_488
*260 NOR2_130
*261 NOR2_112
*262 NOT_831
*263 n926gat
*264 NOR2_401
*265 NOT_1518
*266 NOR2_476
*267 NOR2_471
*268 NOR2_460
*269 NOR2_447
*270 NOR2_439
*271 NOR2_429
*272 NOR2_417
*273 n979gat
*274 n841gat
*275 NOR2_487
*276 NOT_175
*277 NOT_174
*278 n741gat
*279 NOR2_400
*280 NOT_1516
*281 NOR2_474
*282 NOR2_469
*283 NOR2_462
*284 NOR2_446
*285 NOR2_441
*286 NOR2_430
*287 NOR2_415
*288 n990gat
*289 n1240gat
*290 NOR2_486
*291 NOT_380
*292 NOT_379
*293 n1111gat
*294 NOR2_398
*295 NOT_1513
*296 NOR2_475
*297 NOR2_470
*298 NOR2_459
*299 NOR2_445
*300 NOR2_440
*301 NOR2_431
*302 NOR2_414
*303 n1095gat
*304 n819gat
*305 NOR2_485
*306 NOT_565
*307 NOT_564
*308 n1112gat
*309 NOR2_399
*310 NOT_1515
*311 NOR2_477
*312 NOR2_472
*313 NOR2_461
*314 NOR2_444
*315 NOR2_442
*316 NOR2_432
*317 NOR2_416
*318 n1096gat
*319 n523gat
*320 NOR3_241
*321 NOR3_239
*322 NOR3_238
*323 NOR3_237
*324 NOR2_395
*325 NOT_1512
*326 n633gat
*327 NOR3_240
*328 NOT_1517
*329 n524gat
*330 NOT_1514
*331 n631gat
*332 NOT_1563
*333 n670gat
*334 NOR2_484
*335 NOR2_402
*336 NOT_1519
*337 n671gat
*338 NOT_1562
*339 n977gat
*340 n1263gat
*341 NOR2_482
*342 n1115gat
*343 OR2_105
*344 n1212gat
*345 n2968gat
*346 OR2_104
*347 n833gat
*348 NOR2_168
*349 NOT_477
*350 NOT_476
*351 n1261gat
*352 n282gat
*353 NOR2_169
*354 NOT_256
*355 NOT_255
*356 n1326gat
*357 n1034gat
*358 NOT_677
*359 NOT_676
*360 n1177gat
*361 n679gat
*362 NOR2_183
*363 NOT_537
*364 NOT_536
*365 n991gat
*366 OR4_48
*367 n1084gat
*368 NOR2_142
*369 NOT_951
*370 n1087gat
*371 n1067gat
*372 NOR2_182
*373 NOT_336
*374 NOT_335
*375 n1089gat
*376 n270gat
*377 NOR2_66
*378 NOT_137
*379 NOT_136
*380 n1097gat
*381 n893gat
*382 OR2_103
*383 n579gat
*384 NOR2_190
*385 NOT_545
*386 NOT_544
*387 n885gat
*388 OR4_47
*389 n985gat
*390 NOR2_146
*391 NOT_955
*392 n986gat
*393 n860gat
*394 NOR2_191
*395 NOT_352
*396 NOT_351
*397 n1090gat
*398 n336gat
*399 NOR2_353
*400 NOT_153
*401 NOT_152
*402 n1098gat
*403 n1259gat
*404 NOR2_467
*405 n901gat
*406 n2967gat
*407 OR2_102
*408 n1251gat
*409 n1071gat
*410 NOT_687
*411 NOT_686
*412 n278gat
*413 NOR2_160
*414 NOT_264
*415 NOT_263
*416 n1260gat
*417 n837gat
*418 NOR2_159
*419 NOT_485
*420 NOT_484
*421 n1262gat
*422 n896gat
*423 OR2_101
*424 n159gat
*425 NOT_145
*426 NOT_144
*427 n987gat
*428 OR4_46
*429 n815gat
*430 NOR2_178
*431 NOT_541
*432 NOT_540
*433 n992gat
*434 n1085gat
*435 NOR2_148
*436 NOT_958
*437 n1088gat
*438 n956gat
*439 NOR2_179
*440 NOT_344
*441 NOT_343
*442 n1091gat
*443 n1172gat
*444 NOR2_457
*445 n899gat
*446 n2961gat
*447 OR2_100
*448 n1200gat
*449 n1120gat
*450 NOT_682
*451 NOT_681
*452 n164gat
*453 NOR2_157
*454 NOT_260
*455 NOT_259
*456 n1324gat
*457 n706gat
*458 NOR2_156
*459 NOT_481
*460 NOT_480
*461 n1375gat
*462 n1266gat
*463 NOR2_452
*464 n1116gat
*465 OR2_99
*466 n2965gat
*467 OR2_98
*468 n1253gat
*469 n930gat
*470 NOT_714
*471 NOT_713
*472 n274gat
*473 NOR2_165
*474 NOT_299
*475 NOT_298
*476 n1257gat
*477 n613gat
*478 NOR2_164
*479 NOT_510
*480 NOT_509
*481 n1267gat
*482 n1178gat
*483 n983gat
*484 NOR2_144
*485 NOT_952
*486 n984gat
*487 OR4_45
*488 n340gat
*489 NOT_195
*490 NOT_194
*491 n988gat
*492 n864gat
*493 NOR2_186
*494 NOT_403
*495 NOT_402
*496 n1093gat
*497 n583gat
*498 NOR2_187
*499 NOT_584
*500 NOT_583
*501 n1094gat
*502 n895gat
*503 OR2_97
*504 n698gat
*505 NOR2_208
*506 NOT_592
*507 NOT_591
*508 n993gat
*509 OR4_44
*510 n393gat
*511 NOR2_22
*512 NOT_201
*513 NOT_200
*514 n997gat
*515 n1147gat
*516 NOR2_207
*517 NOT_419
*518 NOT_418
*519 n1092gat
*520 n1150gat
*521 NOR2_136
*522 NOT_943
*523 n1152gat
*524 n1008gat
*525 NOR2_437
*526 n900gat
*527 n2942gat
*528 OR2_96
*529 n1254gat
*530 n1044gat
*531 NOT_724
*532 NOT_723
*533 n397gat
*534 NOT_305
*535 NOT_304
*536 n903gat
*537 n490gat
*538 NOT_459
*539 NOT_458
*540 n904gat
*541 n891gat
*542 OR2_95
*543 n683gat
*544 NOR2_204
*545 NOT_588
*546 NOT_587
*547 n886gat
*548 OR4_43
*549 n1079gat
*550 NOR2_203
*551 NOT_411
*552 NOT_410
*553 n889gat
*554 n702gat
*555 NOR2_6
*556 NOT_197
*557 NOT_59
*558 n890gat
*559 n873gat
*560 NOR2_138
*561 NOT_944
*562 n981gat
*563 n1265gat
*564 NOR2_427
*565 n892gat
*566 n1244gat
*567 n2969gat
*568 OR2_94
*569 n617gat
*570 NOT_455
*571 NOT_454
*572 n1264gat
*573 n401gat
*574 NOR2_3
*575 NOT_301
*576 NOT_35
*577 n1323gat
*578 n1134gat
*579 NOT_719
*580 NOT_718
*581 n1171gat
*582 NOR2_422
*583 n999gat
*584 OR2_93
*585 n2960gat
*586 OR2_92
*587 n1243gat
*588 n1281gat
*589 NOR2_82
*590 NOT_707
*591 n845gat
*592 NOR2_5
*593 NOT_278
*594 NOT_47
*595 n1174gat
*596 n621gat
*597 NOT_469
*598 NOT_468
*599 n1175gat
*600 n1001gat
*601 n875gat
*602 NOR2_140
*603 NOT_947
*604 n980gat
*605 OR4_42
*606 n823gat
*607 NOR2_200
*608 NOT_561
*609 NOT_560
*610 n995gat
*611 n725gat
*612 NOR2_9
*613 NOR2_7
*614 NOT_167
*615 NOT_63
*616 n998gat
*617 n1293gat
*618 NOR2_199
*619 NOT_372
*620 NOT_371
*621 n1099gat
*622 n1009gat
*623 NOR2_408
*624 n902gat
*625 OR2_91
*626 n409gat
*627 NOR2_409
*628 n291gat
*629 NOR2_411
*630 n290gat
*631 NOR2_393
*632 NOT_1507
*633 n292gat
*634 NOR2_410
*635 n415gat
*636 NOR2_397
*637 NOR2_391
*638 NOT_1509
*639 n356gat
*640 NOR2_390
*641 NOT_1508
*642 n406gat
*643 NOR4_11
*644 NOT_1505
*645 n407gat
*646 NOR2_386
*647 NOT_1506
*648 n1255gat
*649 n2943gat
*650 OR2_90
*651 n625gat
*652 NOT_473
*653 NOT_472
*654 n905gat
*655 n918gat
*656 NOR2_4
*657 NOT_284
*658 NOT_40
*659 n1012gat
*660 n1225gat
*661 NOR2_81
*662 NOT_705
*663 n1003gat
*664 n2931gat
*665 OR4_41
*666 n801gat
*667 n672gat
*668 NOT_24
*669 n414gat
*670 NOR3_236
*671 n639gat
*672 n636gat
*673 n566gat
*674 NOR2_134
*675 NOT_940
*676 n880gat
*677 n632gat
*678 n721gat
*679 NOR2_20
*680 NOT_177
*681 NOT_67
*682 n989gat
*683 n634gat
*684 NOR2_396
*685 n629gat
*686 n882gat
*687 NOR2_194
*688 NOT_569
*689 NOT_568
*690 n994gat
*691 n630gat
*692 n1297gat
*693 NOR2_195
*694 NOT_384
*695 NOT_383
*696 n1100gat
*697 n635gat
*698 n411gat
*699 NOR2_385
*700 NOR2_382
*701 NOT_1503
*702 n418gat
*703 NOR2_381
*704 NOT_1502
*705 n521gat
*706 NOR2_392
*707 NOT_1510
*708 n522gat
*709 NOR2_383
*710 NOT_1504
*711 n408gat
*712 n359gat
*713 n358gat
*714 NOT_1511
*715 n527gat
*716 NOR3_235
*717 n416gat
*718 n528gat
*719 n532gat
*720 n740gat
*721 NOT_442
*722 NOR2_389
*723 NOR2_388
*724 NOR2_387
*725 NOR2_89
*726 OR3_1
*727 n2715gat
*728 NOR2_384
*729 NOR2_52
*730 NOR2_29
*731 NOR2_15
*732 NOR2_0
*733 NOT_2
*734 n2723gat
*735 NOR2_51
*736 NOR2_47
*737 NOR2_17
*738 NOT_5
*739 n2726gat
*740 NOR2_351
*741 NOR2_53
*742 NOR2_30
*743 NOR2_16
*744 NOT_117
*745 n526gat
*746 NOR3_234
*747 n531gat
*748 n530gat
*749 n525gat
*750 n2862gat
*751 NOR2_378
*752 NOT_87
*753 NOT_86
*754 n2854gat
*755 NOR2_379
*756 NOT_77
*757 NOT_76
*758 n2859gat
*759 NOR2_48
*760 NOT_82
*761 NOT_81
*762 n516gat
*763 n517gat
*764 NOR3_233
*765 NOT_1501
*766 n410gat
*767 n354gat
*768 n355gat
*769 extra11
*770 NOR4_11_A
*771 n417gat
*772 n413gat
*773 n412gat
*774 n374gat
*775 NOT_446
*776 NOR2_91
*777 NOR4_1
*778 n520gat
*779 NOR2_380
*780 n519gat
*781 n518gat
*782 n2442gat
*783 NOR3_232
*784 NOR2_356
*785 NOT_1440
*786 n1690gat
*787 NOR2_225
*788 NOT_1079
*789 n1978gat
*790 NOT_1496
*791 n1721gat
*792 NOT_1497
*793 n1681gat
*794 NOR3_231
*795 NOR3_230
*796 NOT_1489
*797 n1602gat
*798 NOR3_229
*799 n2985gat
*800 OR4_40
*801 n1760gat
*802 NOT_1493
*803 n1761gat
*804 NOT_1490
*805 n1594gat
*806 NOT_1486
*807 n1587gat
*808 NOT_1488
*809 n2989gat
*810 OR3_60
*811 OR2_16
*812 NOT_1130
*813 NOT_653
*814 n1551gat
*815 NOR2_377
*816 NOR2_217
*817 NOT_1043
*818 n1310gat
*819 NOR4_8_A
*820 NOT_1156
*821 n1593gat
*822 DFF_178
*823 n1507gat
*824 NOR2_376
*825 NOR3_190
*826 NOT_1134
*827 n1477gat
*828 NOT_1485
*829 n1531gat
*830 n1392gat
*831 NOR3_228
*832 NOT_1057
*833 DFF_118
*834 n1461gat
*835 NOT_1484
*836 n1396gat
*837 NOT_1135
*838 n1466gat
*839 OR2_89
*840 n2289gat
*841 NOR2_375
*842 OR3_8
*843 NOT_671
*844 n1468gat
*845 NOT_1482
*846 n1467gat
*847 n1677gat
*848 NOR2_374
*849 NOR3_191
*850 OR3_59
*851 NOT_1144
*852 n1458gat
*853 NOR2_373
*854 n1532gat
*855 n1510gat
*856 NOR2_370
*857 n1459gat
*858 NOR2_372
*859 n1595gat
*860 NOT_1480
*861 n1454gat
*862 NOT_1481
*863 n1635gat
*864 NOR2_371
*865 NOR2_358
*866 NOR3_169
*867 NOR2_221
*868 NOR2_211
*869 NOT_1022
*870 n1919gat
*871 NOR2_369
*872 NOT_1477
*873 n1800gat
*874 DFF_177
*875 n1584gat
*876 NOR3_223
*877 NOR4_10_A
*878 NOR3_222
*879 NOR2_240
*880 NOR2_239
*881 n1460gat
*882 NOT_1478
*883 n1859gat
*884 NOR2_222
*885 NOT_1074
*886 n1915gat
*887 DFF_176
*888 n1988gat
*889 NOR3_227
*890 NOR2_236
*891 NOR3_165
*892 NOR3_163
*893 NOR3_156
*894 NOT_1035
*895 n2216gat
*896 NOT_1121
*897 NOT_1109
*898 NOT_1033
*899 n1862gat
*900 NOT_1476
*901 n1860gat
*902 n1991gat
*903 NOR3_226
*904 NOR2_233
*905 NOR2_230
*906 NOR3_164
*907 NOR3_158
*908 NOT_1054
*909 n2283gat
*910 NOR2_234
*911 NOT_1085
*912 n1989gat
*913 NOR2_235
*914 NOR3_155
*915 NOT_1024
*916 n1863gat
*917 n1524gat
*918 NOR2_368
*919 NOT_1475
*920 n1403gat
*921 NOR2_360
*922 NOT_1446
*923 n1533gat
*924 n1774gat
*925 NOR2_365
*926 NOR3_196
*927 NOT_1196
*928 n1684gat
*929 NOT_1472
*930 n1686gat
*931 n1818gat
*932 NOR3_224
*933 NOR2_367
*934 n1935gat
*935 NOR3_101
*936 NOR2_28
*937 n2765gat
*938 NOT_1471
*939 n1759gat
*940 n1823gat
*941 NOR2_27
*942 NOT_235
*943 n2005gat
*944 NOR2_366
*945 n2002gat
*946 NOT_1464
*947 n2857gat
*948 NOT_1467
*949 n2012gat
*950 NOT_1463
*951 n2008gat
*952 n1455gat
*953 NOR2_364
*954 NOT_1452
*955 n1397gat
*956 NOR2_363
*957 n1398gat
*958 OR4_39
*959 n1519gat
*960 n1401gat
*961 n1339gat
*962 NOT_1454
*963 n1600gat
*964 NOR2_362
*965 n1685gat
*966 NOT_1060
*967 DFF_119
*968 n1427gat
*969 NOR2_173
*970 NOT_978
*971 extra10
*972 NOR4_10
*973 n1576gat
*974 NOT_1083
*975 n1564gat
*976 DFF_174
*977 n1719gat
*978 NOR3_168
*979 NOR2_223
*980 NOR2_210
*981 NOT_1013
*982 n1790gat
*983 NOR2_249
*984 NOR2_238
*985 NOT_1125
*986 n1806gat
*987 NOT_1448
*988 n1338gat
*989 NOT_1450
*990 n1399gat
*991 n1634gat
*992 NOR2_361
*993 NOT_1449
*994 n1735gat
*995 NOR2_218
*996 NOR2_213
*997 NOT_1036
*998 n1567gat
*999 DFF_173
*1000 n1674gat
*1001 NOT_1445
*1002 n1400gat
*1003 n1858gat
*1004 NOT_654
*1005 DFF_71
*1006 NOR3_221
*1007 NOR2_357
*1008 NOR3_219
*1009 NOR2_241
*1010 NOR2_227
*1011 NOR3_160
*1012 n1393gat
*1013 NOT_1137
*1014 n1604gat
*1015 NOR4_2
*1016 OR3_9
*1017 n1402gat
*1018 n1472gat
*1019 NOR2_359
*1020 NOR3_220
*1021 n1747gat
*1022 NOT_1443
*1023 n1470gat
*1024 n1927gat
*1025 DFF_170
*1026 n1476gat
*1027 NOT_1138
*1028 n1471gat
*1029 n1469gat
*1030 n1608gat
*1031 NOR2_151
*1032 NOR2_150
*1033 n1334gat
*1034 NOT_1441
*1035 n1513gat
*1036 NOT_1438
*1037 n1391gat
*1038 DFF_169
*1039 n2537gat
*1040 NOR3_218
*1041 NOT_1439
*1042 n2482gat
*1043 NOR3_103
*1044 NOT_663
*1045 n2486gat
*1046 NOR3_100
*1047 NOT_640
*1048 n2483gat
*1049 n2620gat
*1050 NOR3_217
*1051 NOT_890
*1052 NOT_889
*1053 n2625gat
*1054 NOR3_102
*1055 NOT_893
*1056 NOT_659
*1057 n2488gat
*1058 NOT_896
*1059 NOT_657
*1060 n2538gat
*1061 n2512gat
*1062 NOT_1419
*1063 n1755gat
*1064 OR2_86
*1065 n1683gat
*1066 NOT_1422
*1067 n1586gat
*1068 OR2_85
*1069 n1756gat
*1070 n1544gat
*1071 NOR2_354
*1072 NOT_1420
*1073 n1698gat
*1074 NOR2_228
*1075 NOR2_68
*1076 NOT_649
*1077 n1613gat
*1078 DFF_168
*1079 n1691gat
*1080 NOT_1177
*1081 NOT_1170
*1082 NOT_1168
*1083 NOT_1166
*1084 NOT_1165
*1085 n1599gat
*1086 OR2_83
*1087 n186gat
*1088 NOR2_352
*1089 NOR3_213
*1090 n82gat
*1091 NOR3_214
*1092 n12gat
*1093 NOT_1396
*1094 n16gat
*1095 NOT_1394
*1096 n295gat
*1097 NOT_1395
*1098 n637gat
*1099 NOR3_211
*1100 NOR3_98
*1101 NOT_247
*1102 n2860gat
*1103 OR3_0
*1104 NOT_91
*1105 NOT_90
*1106 n357gat
*1107 n189gat
*1108 NOR3_195
*1109 NOR3_97
*1110 NOT_616
*1111 n287gat
*1112 NOR3_212
*1113 NOT_531
*1114 n288gat
*1115 NOT_532
*1116 n85gat
*1117 NOR2_350
*1118 n180gat
*1119 n68gat
*1120 NOT_1390
*1121 n286gat
*1122 NOR3_80
*1123 n188gat
*1124 n17gat
*1125 NOR3_202
*1126 NOR3_194
*1127 NOR3_79
*1128 NOT_526
*1129 n294gat
*1130 NOT_445
*1131 n2731gat
*1132 NOR2_349
*1133 NOR2_93
*1134 NOR2_65
*1135 NOR2_50
*1136 NOR2_31
*1137 NOT_330
*1138 n110gat
*1139 NOR2_345
*1140 NOR2_341
*1141 NOR2_309
*1142 NOR2_302
*1143 NOR2_301
*1144 NOT_1318
*1145 n796gat
*1146 OR2_80
*1147 n375gat
*1148 NOR2_348
*1149 NOR2_344
*1150 NOR2_340
*1151 NOR2_308
*1152 NOR2_305
*1153 n380gat
*1154 NOT_1387
*1155 n1082gat
*1156 n140gat
*1157 NOR2_347
*1158 NOR2_343
*1159 NOR3_209
*1160 NOT_1378
*1161 n147gat
*1162 NOR2_346
*1163 NOT_1386
*1164 n237gat
*1165 OR3_53
*1166 n254gat
*1167 NOR2_342
*1168 NOR3_208
*1169 NOT_1370
*1170 n238gat
*1171 n255gat
*1172 NOR3_210
*1173 NOT_1380
*1174 n146gat
*1175 NOT_1384
*1176 n241gat
*1177 n324gat
*1178 n2734gat
*1179 NOR2_98
*1180 NOR2_78
*1181 NOR2_59
*1182 NOR2_36
*1183 NOT_349
*1184 n797gat
*1185 OR2_79
*1186 n802gat
*1187 NOT_1381
*1188 n871gat
*1189 n240gat
*1190 OR2_78
*1191 n242gat
*1192 n151gat
*1193 NOR2_304
*1194 NOR2_303
*1195 NOT_1324
*1196 n253gat
*1197 NOR2_337
*1198 NOR2_307
*1199 NOR3_203
*1200 NOT_1321
*1201 n155gat
*1202 NOR2_306
*1203 NOT_1320
*1204 n2672gat
*1205 NOR2_326
*1206 NOR2_92
*1207 NOR2_86
*1208 NOR2_39
*1209 NOT_374
*1210 n1077gat
*1211 OR2_77
*1212 n381gat
*1213 NOT_1375
*1214 n1083gat
*1215 n469gat
*1216 NOR2_339
*1217 NOT_1374
*1218 n2877gat
*1219 OR2_75
*1220 NOT_1371
*1221 n390gat
*1222 OR2_76
*1223 n252gat
*1224 NOR2_338
*1225 n468gat
*1226 NOT_1372
*1227 n391gat
*1228 n154gat
*1229 NOT_1327
*1230 n136gat
*1231 n139gat
*1232 n219gat
*1233 NOT_528
*1234 NOR2_336
*1235 NOR2_331
*1236 NOR2_320
*1237 NOR2_310
*1238 NOR2_61
*1239 NOR2_56
*1240 n2781gat
*1241 NOR2_110
*1242 NOR2_85
*1243 NOR2_45
*1244 NOT_413
*1245 n446gat
*1246 OR3_52
*1247 n134gat
*1248 NOR2_335
*1249 NOT_1367
*1250 n372gat
*1251 NOR2_330
*1252 NOR2_325
*1253 NOR2_319
*1254 NOR2_314
*1255 NOT_1334
*1256 n451gat
*1257 n383gat
*1258 NOR2_334
*1259 NOR2_333
*1260 NOT_1366
*1261 n247gat
*1262 NOR2_329
*1263 NOR3_206
*1264 NOT_1358
*1265 n39gat
*1266 OR3_51
*1267 n325gat
*1268 NOR2_328
*1269 NOR3_205
*1270 NOT_1352
*1271 n40gat
*1272 n382gat
*1273 NOR3_207
*1274 NOT_1364
*1275 n326gat
*1276 NOT_1360
*1277 n144gat
*1278 n142gat
*1279 n111gat
*1280 NOR2_55
*1281 NOT_534
*1282 NOR2_332
*1283 NOR2_327
*1284 NOR2_321
*1285 NOR2_316
*1286 NOR2_315
*1287 NOR2_60
*1288 NOR2_58
*1289 NOR2_57
*1290 n2842gat
*1291 NOR2_109
*1292 NOR2_46
*1293 NOT_416
*1294 n772gat
*1295 n2789gat
*1296 NOR2_108
*1297 NOR2_84
*1298 NOR2_43
*1299 NOT_405
*1300 n968gat
*1301 OR3_50
*1302 n878gat
*1303 NOT_1361
*1304 n970gat
*1305 n143gat
*1306 OR2_74
*1307 n145gat
*1308 n334gat
*1309 NOR2_322
*1310 NOR2_318
*1311 NOR3_204
*1312 NOT_1338
*1313 n387gat
*1314 NOR2_317
*1315 NOT_1337
*1316 n330gat
*1317 NOR2_313
*1318 NOR2_312
*1319 NOT_1341
*1320 n2840gat
*1321 NOR2_107
*1322 NOR2_44
*1323 NOT_408
*1324 n971gat
*1325 n969gat
*1326 OR3_49
*1327 n458gat
*1328 NOT_1355
*1329 n972gat
*1330 n457gat
*1331 NOR2_324
*1332 NOT_1353
*1333 n461gat
*1334 NOT_1354
*1335 n459gat
*1336 OR2_73
*1337 n462gat
*1338 NOR2_323
*1339 NOT_1351
*1340 n2884gat
*1341 OR2_72
*1342 n460gat
*1343 n386gat
*1344 NOT_1339
*1345 n245gat
*1346 n246gat
*1347 n2852gat
*1348 NOR2_90
*1349 NOR2_40
*1350 NOT_377
*1351 n975gat
*1352 n2669gat
*1353 NOR2_102
*1354 NOR2_80
*1355 NOR2_1
*1356 NOT_14
*1357 n870gat
*1358 OR3_48
*1359 n333gat
*1360 NOT_1347
*1361 n973gat
*1362 n244gat
*1363 OR2_71
*1364 n1490gat
*1365 NOT_1343
*1366 n251gat
*1367 n2844gat
*1368 NOR2_101
*1369 NOR2_2
*1370 NOT_17
*1371 n974gat
*1372 n2846gat
*1373 NOR2_100
*1374 NOR2_38
*1375 NOT_369
*1376 n448gat
*1377 OR3_47
*1378 n452gat
*1379 NOT_1344
*1380 n453gat
*1381 n248gat
*1382 OR3_46
*1383 n249gat
*1384 n329gat
*1385 NOT_1335
*1386 n250gat
*1387 n182gat
*1388 NOR2_311
*1389 n78gat
*1390 n212gat
*1391 n2792gat
*1392 NOR2_99
*1393 NOR2_79
*1394 NOR2_37
*1395 NOT_366
*1396 n869gat
*1397 n2778gat
*1398 NOR2_105
*1399 NOR2_83
*1400 NOR2_41
*1401 NOT_397
*1402 n377gat
*1403 OR2_70
*1404 n235gat
*1405 NOT_1331
*1406 n378gat
*1407 n137gat
*1408 OR2_69
*1409 n233gat
*1410 NOT_1326
*1411 n234gat
*1412 n800gat
*1413 NOT_1328
*1414 n872gat
*1415 OR2_68
*1416 n37gat
*1417 OR3_45
*1418 n38gat
*1419 n150gat
*1420 NOT_1322
*1421 n141gat
*1422 n2775gat
*1423 NOR2_95
*1424 NOR2_77
*1425 NOR2_34
*1426 NOT_341
*1427 n1074gat
*1428 n89gat
*1429 n88gat
*1430 NOT_1317
*1431 n296gat
*1432 NOT_6
*1433 n84gat
*1434 n3015gat
*1435 NOR2_299
*1436 OR2_67
*1437 n2199gat
*1438 NOR2_289
*1439 NOR2_286
*1440 NOR2_283
*1441 NOR2_280
*1442 NOR2_276
*1443 NOT_1267
*1444 n2637gat
*1445 NOT_1314
*1446 n2352gat
*1447 NOR2_298
*1448 NOR2_296
*1449 NOT_1312
*1450 n2642gat
*1451 NOT_1313
*1452 n2565gat
*1453 n2643gat
*1454 NOR2_297
*1455 NOT_1310
*1456 n2564gat
*1457 n2566gat
*1458 n3011gat
*1459 OR2_66
*1460 n2215gat
*1461 NOR2_285
*1462 NOR3_199
*1463 NOT_1285
*1464 n2393gat
*1465 NOR2_295
*1466 NOR2_281
*1467 NOR2_277
*1468 NOT_1281
*1469 NOT_1053
*1470 n2401gat
*1471 NOR2_287
*1472 NOR2_279
*1473 NOT_1023
*1474 n2331gat
*1475 n2999gat
*1476 NOR2_294
*1477 OR2_65
*1478 n2437gat
*1479 NOR2_274
*1480 NOR2_271
*1481 NOR2_268
*1482 NOR2_265
*1483 NOR2_264
*1484 NOT_1239
*1485 n2559gat
*1486 NOT_1306
*1487 n1896gat
*1488 NOR2_293
*1489 NOR2_291
*1490 NOT_1304
*1491 n1973gat
*1492 NOT_1305
*1493 n1971gat
*1494 n1974gat
*1495 NOR2_292
*1496 NOT_1302
*1497 n1970gat
*1498 n1972gat
*1499 n2995gat
*1500 OR2_64
*1501 n1895gat
*1502 NOR2_262
*1503 NOR3_197
*1504 NOT_1235
*1505 n1963gat
*1506 NOR2_290
*1507 NOR2_272
*1508 NOR2_260
*1509 NOT_1260
*1510 NOT_1232
*1511 n1893gat
*1512 NOR2_270
*1513 NOR2_267
*1514 NOT_1253
*1515 n1962gat
*1516 n2124gat
*1517 NOR3_201
*1518 NOT_1295
*1519 n2115gat
*1520 NOT_1298
*1521 n2239gat
*1522 NOR2_67
*1523 n1882gat
*1524 NOT_1299
*1525 n2146gat
*1526 NOT_1648
*1527 NOT_1289
*1528 n2196gat
*1529 NOT_1290
*1530 n2193gat
*1531 NOR2_288
*1532 NOR2_278
*1533 NOT_1277
*1534 n2346gat
*1535 NOT_1046
*1536 NOT_1045
*1537 n2149gat
*1538 OR3_44
*1539 n2150gat
*1540 n2402gat
*1541 NOR3_200
*1542 NOT_1051
*1543 NOT_1050
*1544 n2151gat
*1545 n2345gat
*1546 NOT_1034
*1547 n2213gat
*1548 n2281gat
*1549 NOT_1653
*1550 NOT_1286
*1551 n2197gat
*1552 NOT_1287
*1553 n2406gat
*1554 NOT_1032
*1555 n2282gat
*1556 OR2_63
*1557 n2405gat
*1558 NOR2_284
*1559 NOT_1048
*1560 NOT_1047
*1561 n2349gat
*1562 n2350gat
*1563 n2058gat
*1564 NOT_1638
*1565 NOT_1282
*1566 n2198gat
*1567 NOT_1283
*1568 n2392gat
*1569 NOR2_282
*1570 NOT_1026
*1571 NOT_1025
*1572 n2439gat
*1573 NOT_1271
*1574 NOT_1029
*1575 NOT_1028
*1576 n1964gat
*1577 OR3_43
*1578 n2438gat
*1579 NOT_1311
*1580 NOT_1268
*1581 NOT_1084
*1582 n2053gat
*1583 n2209gat
*1584 NOT_1643
*1585 NOT_1278
*1586 n2396gat
*1587 NOT_1279
*1588 n2210gat
*1589 OR2_62
*1590 n2211gat
*1591 n2328gat
*1592 NOT_1633
*1593 NOT_1274
*1594 n2498gat
*1595 NOT_1275
*1596 n2988gat
*1597 NOR2_275
*1598 OR2_50
*1599 NOT_1088
*1600 n1855gat
*1601 NOR2_263
*1602 NOR2_259
*1603 NOR2_256
*1604 NOR2_252
*1605 NOR2_251
*1606 NOT_1203
*1607 n2147gat
*1608 n1961gat
*1609 NOT_1397
*1610 NOT_1264
*1611 n2330gat
*1612 NOT_1265
*1613 n1886gat
*1614 NOR2_273
*1615 NOT_1246
*1616 NOT_1233
*1617 n1887gat
*1618 NOT_1263
*1619 n1957gat
*1620 OR3_42
*1621 n1956gat
*1622 NOT_1303
*1623 NOT_1243
*1624 NOT_1242
*1625 n1959gat
*1626 n2056gat
*1627 NOT_1400
*1628 NOT_1257
*1629 n2387gat
*1630 NOT_1258
*1631 n1968gat
*1632 NOR3_198
*1633 NOT_1234
*1634 n1967gat
*1635 OR2_60
*1636 n1891gat
*1637 NOR2_269
*1638 NOT_1231
*1639 n1958gat
*1640 NOR2_266
*1641 n2055gat
*1642 n1892gat
*1643 NOT_1669
*1644 NOT_1254
*1645 n2436gat
*1646 NOT_1255
*1647 n1845gat
*1648 NOT_1230
*1649 n1846gat
*1650 OR3_41
*1651 n1847gat
*1652 n1969gat
*1653 NOT_1252
*1654 n1894gat
*1655 n2048gat
*1656 NOT_1391
*1657 NOT_1249
*1658 n2539gat
*1659 NOT_1250
*1660 n1711gat
*1661 NOT_1674
*1662 NOT_1237
*1663 n2556gat
*1664 NOT_1240
*1665 n2200gat
*1666 NOT_1238
*1667 n2195gat
*1668 n1631gat
*1669 NOT_1236
*1670 n1630gat
*1671 OR2_58
*1672 n1709gat
*1673 NOR2_261
*1674 NOT_1229
*1675 n1629gat
*1676 n1710gat
*1677 n3007gat
*1678 OR2_57
*1679 n2329gat
*1680 NOT_1226
*1681 n2265gat
*1682 NOR2_258
*1683 NOT_1225
*1684 n3006gat
*1685 OR2_56
*1686 NOT_1222
*1687 n2249gat
*1688 n2248gat
*1689 NOR2_257
*1690 n2264gat
*1691 NOT_1223
*1692 n2250gat
*1693 n2049gat
*1694 NOT_1628
*1695 NOT_1217
*1696 n2057gat
*1697 NOT_1218
*1698 n2134gat
*1699 NOR2_255
*1700 NOR3_166
*1701 NOT_1092
*1702 n2185gat
*1703 NOR2_253
*1704 NOT_1216
*1705 n2130gat
*1706 OR2_55
*1707 n2133gat
*1708 NOR2_254
*1709 NOT_1215
*1710 n2131gat
*1711 n2132gat
*1712 n2261gat
*1713 NOR2_248
*1714 NOT_1206
*1715 NOT_1094
*1716 n2189gat
*1717 NOR2_247
*1718 NOT_1220
*1719 NOT_1190
*1720 NOT_1090
*1721 n2184gat
*1722 NOT_1618
*1723 NOT_1212
*1724 n2192gat
*1725 NOT_1213
*1726 n2187gat
*1727 NOT_1623
*1728 NOT_1192
*1729 n2194gat
*1730 NOT_1204
*1731 extra9
*1732 NOR4_9
*1733 NOR4_9_A
*1734 n2664gat
*1735 NOR3_188
*1736 NOR2_216
*1737 n2014gat
*1738 n2035gat
*1739 OR4_38
*1740 NOT_1200
*1741 DFF_149
*1742 n2093gat
*1743 NOT_1160
*1744 DFF_140
*1745 n2018gat
*1746 NOR2_250
*1747 n2016gat
*1748 NOR2_215
*1749 n2097gat
*1750 NOT_1202
*1751 n2017gat
*1752 DFF_146
*1753 n2039gat
*1754 NOT_1194
*1755 n1315gat
*1756 NOT_1198
*1757 n2015gat
*1758 DFF_144
*1759 n2188gat
*1760 NOT_1191
*1761 n2255gat
*1762 OR3_40
*1763 n2260gat
*1764 NOT_1221
*1765 NOT_1209
*1766 NOT_1189
*1767 n2258gat
*1768 extra8
*1769 NOR4_8
*1770 n2168gat
*1771 NOT_1163
*1772 n2163gat
*1773 DFF_142
*1774 n200gat
*1775 NOR2_246
*1776 NOR2_244
*1777 n196gat
*1778 NOR2_245
*1779 n204gat
*1780 NOT_1159
*1781 n297gat
*1782 NOR2_62
*1783 NOT_253
*1784 n195gat
*1785 NOT_1158
*1786 n179gat
*1787 n184gat
*1788 n199gat
*1789 NOT_1157
*1790 n92gat
*1791 NOR2_63
*1792 NOT_246
*1793 n743gat
*1794 NOT_444
*1795 n293gat
*1796 NOT_248
*1797 n87gat
*1798 n2448gat
*1799 NOR2_243
*1800 NOT_1408
*1801 NOT_1151
*1802 n2444gat
*1803 OR2_84
*1804 NOT_1153
*1805 n2238gat
*1806 NOT_1154
*1807 n2660gat
*1808 NOR2_242
*1809 NOR3_193
*1810 NOT_929
*1811 n2586gat
*1812 NOT_834
*1813 n2662gat
*1814 NOT_1152
*1815 n2307gat
*1816 NOT_1148
*1817 DFF_137
*1818 n2663gat
*1819 NOT_1149
*1820 n1411gat
*1821 NOR3_192
*1822 n1406gat
*1823 NOR2_214
*1824 n2981gat
*1825 OR3_39
*1826 n1412gat
*1827 NOT_1433
*1828 NOT_1429
*1829 NOT_1146
*1830 NOT_1145
*1831 n1409gat
*1832 n1407gat
*1833 n1590gat
*1834 NOT_982
*1835 n1408gat
*1836 n1718gat
*1837 NOT_1132
*1838 n1636gat
*1839 DFF_134
*1840 n2591gat
*1841 NOT_1129
*1842 n1413gat
*1843 n2004gat
*1844 NOT_1126
*1845 n2009gat
*1846 DFF_132
*1847 n1758gat
*1848 n1929gat
*1849 n2992gat
*1850 NOR3_187
*1851 OR3_32
*1852 n2986gat
*1853 OR3_33
*1854 n2991gat
*1855 OR3_34
*1856 n1726gat
*1857 n1643gat
*1858 NOR3_186
*1859 NOT_49
*1860 n1648gat
*1861 NOT_1124
*1862 n1659gat
*1863 NOR3_171
*1864 NOT_1106
*1865 NOR3_184
*1866 NOR2_237
*1867 NOR3_181
*1868 NOR3_179
*1869 NOR3_177
*1870 NOR3_175
*1871 NOR3_173
*1872 n1644gat
*1873 n1658gat
*1874 NOR3_185
*1875 NOR3_183
*1876 NOR3_180
*1877 NOR3_178
*1878 NOR3_176
*1879 NOR3_174
*1880 NOR3_172
*1881 NOR3_170
*1882 n1797gat
*1883 NOT_1117
*1884 n1568gat
*1885 NOT_1115
*1886 n1729gat
*1887 n1651gat
*1888 NOT_50
*1889 n1652gat
*1890 NOT_1123
*1891 n1653gat
*1892 n1662gat
*1893 NOT_1111
*1894 n1657gat
*1895 n1671gat
*1896 NOT_1122
*1897 n1654gat
*1898 n1668gat
*1899 NOR3_182
*1900 NOT_1120
*1901 n1742gat
*1902 n1670gat
*1903 NOT_1113
*1904 n1669gat
*1905 n2212gat
*1906 NOR2_231
*1907 NOR3_162
*1908 n1734gat
*1909 n1561gat
*1910 NOT_1119
*1911 n1562gat
*1912 NOT_51
*1913 n1563gat
*1914 n1571gat
*1915 n1560gat
*1916 NOT_52
*1917 n1730gat
*1918 NOT_1118
*1919 n1649gat
*1920 n1515gat
*1921 NOT_1107
*1922 n1731gat
*1923 n2152gat
*1924 NOR3_159
*1925 n1801gat
*1926 n1727gat
*1927 NOT_1116
*1928 n1640gat
*1929 NOT_53
*1930 n1650gat
*1931 n1736gat
*1932 NOT_1108
*1933 n1728gat
*1934 n1918gat
*1935 NOR2_232
*1936 n1575gat
*1937 n1569gat
*1938 NOT_1114
*1939 n1566gat
*1940 NOT_54
*1941 n1646gat
*1942 n1570gat
*1943 n1986gat
*1944 n1667gat
*1945 n1656gat
*1946 NOT_1112
*1947 n1554gat
*1948 NOT_55
*1949 n1647gat
*1950 n1655gat
*1951 n1663gat
*1952 n1722gat
*1953 NOT_56
*1954 n1724gat
*1955 NOT_1110
*1956 n1723gat
*1957 n1732gat
*1958 n1737gat
*1959 n1521gat
*1960 n1444gat
*1961 NOT_968
*1962 n1573gat
*1963 OR2_52
*1964 n1673gat
*1965 NOR2_226
*1966 NOR2_220
*1967 NOR2_219
*1968 n1574gat
*1969 n1311gat
*1970 NOT_1103
*1971 n1707gat
*1972 NOT_1104
*1973 n1696gat
*1974 DFF_131
*1975 n2078gat
*1976 NOR3_167
*1977 NOR4_6_A
*1978 NOR4_5
*1979 n1990gat
*1980 n2181gat
*1981 NOT_1098
*1982 n2073gat
*1983 OR2_51
*1984 extra7
*1985 NOR4_7
*1986 NOR4_7_A
*1987 n1703gat
*1988 NOR2_149
*1989 OR3_23
*1990 n1695gat
*1991 NOT_1096
*1992 n1609gat
*1993 NOR2_175
*1994 NOR4_2_A
*1995 NOR2_74
*1996 OR4_37
*1997 n1778gat
*1998 NOR2_73
*1999 n1704gat
*2000 NOR2_128
*2001 NOT_933
*2002 extra6
*2003 NOR4_6
*2004 n2128gat
*2005 NOT_1095
*2006 n2079gat
*2007 n2178gat
*2008 NOT_1081
*2009 n2129gat
*2010 n1580gat
*2011 NOT_1087
*2012 n1581gat
*2013 n1520gat
*2014 NOT_1086
*2015 n2351gat
*2016 n1577gat
*2017 n1582gat
*2018 n1572gat
*2019 n1733gat
*2020 n1661gat
*2021 NOT_1082
*2022 n1660gat
*2023 n1700gat
*2024 NOR2_76
*2025 NOT_1342
*2026 n1702gat
*2027 NOR2_75
*2028 NOT_1325
*2029 extra5
*2030 NOR4_5_A
*2031 n1924gat
*2032 NOR2_224
*2033 n1926gat
*2034 n1916gat
*2035 n1994gat
*2036 n1743gat
*2037 NOT_1077
*2038 n1923gat
*2039 NOT_1078
*2040 n1922gat
*2041 NOT_1075
*2042 n1917gat
*2043 NOT_1070
*2044 n1925gat
*2045 NOT_1069
*2046 n1864gat
*2047 NOR3_161
*2048 n1921gat
*2049 n1798gat
*2050 n1920gat
*2051 n1739gat
*2052 NOT_1068
*2053 n1738gat
*2054 NOT_1066
*2055 n1552gat
*2056 NOT_1064
*2057 n1565gat
*2058 DFF_120
*2059 n1495gat
*2060 NOT_1059
*2061 n2090gat
*2062 NOT_1062
*2063 n1517gat
*2064 NOT_1056
*2065 n1516gat
*2066 DFF_117
*2067 n1665gat
*2068 NOT_1055
*2069 n1578gat
*2070 n1666gat
*2071 n2850gat
*2072 NOT_243
*2073 n3018gat
*2074 NOT_1150
*2075 n2019gat
*2076 NOT_1041
*2077 n1878gat
*2078 NOR3_154
*2079 NOT_966
*2080 n1777gat
*2081 NOR3_157
*2082 NOT_1039
*2083 DFF_143
*2084 n1625gat
*2085 NOR2_154
*2086 DFF_102
*2087 n1626gat
*2088 NOR2_155
*2089 DFF_103
*2090 n1780gat
*2091 NOT_1040
*2092 n1428gat
*2093 NOR4_4
*2094 n1387gat
*2095 NOT_1037
*2096 n1792gat
*2097 NOR2_212
*2098 n1793gat
*2099 DFF_115
*2100 n1866gat
*2101 NOT_1030
*2102 n1861gat
*2103 n1865gat
*2104 n1794gat
*2105 n1796gat
*2106 extra4
*2107 NOR4_4_A
*2108 n2977gat
*2109 OR4_36
*2110 n2978gat
*2111 OR4_34
*2112 n2982gat
*2113 OR2_41