*SPEF "1481-1998"
*DESIGN "s641"
*DATE "Fri Aug  1 15:47:28 2014"
*VENDOR "Synopsys, Inc."
*PROGRAM "icc_shell"
*VERSION "G-2012.06-ICC-SP5"
*DESIGN_FLOW "PIN_CAP NONE"
*DIVIDER /
*DELIMITER :
*BUS_DELIMITER [ ]
*T_UNIT 1 NS
*C_UNIT 1 FF
*R_UNIT 1 OHM
*L_UNIT 1 HENRY

*NAME_MAP
*1 G3
*2 G2
*3 G1
*4 CK
*5 VDD
*6 VSS
*7 G12
*8 G11
*9 G10
*10 G9
*11 G8
*12 G6
*13 G5
*14 G4
*15 G20
*16 G19
*17 G18
*18 G17
*19 G16
*20 G15
*21 G14
*22 G13
*23 G28
*24 G27
*25 G26
*26 G25
*27 G24
*28 G23
*29 G22
*30 G21
*31 G36
*32 G35
*33 G34
*34 G33
*35 G32
*36 G31
*37 G30
*38 G29
*39 G98BF
*40 G100BF
*41 G85
*42 G84
*43 G83
*44 G107
*45 G94
*46 G91
*47 G104BF
*48 G97BF
*49 G106BF
*50 G101BF
*51 G89BF
*52 G87BF
*53 G92
*54 G96BF
*55 G90
*56 G103BF
*57 G95BF
*58 G86BF
*59 G138
*60 G105BF
*61 G99BF
*62 G88BF
*63 G379
*64 AND2_10
*65 AND2_9
*66 AND2_8
*67 AND2_7
*68 NOT_2
*69 NAND2_3
*70 NAND2_2
*71 NAND2_1
*72 NAND2_0
*73 AND4_3
*74 AND4_2
*75 AND4_1
*76 AND4_0
*77 G354
*78 NOT_232
*79 NOT_231
*80 G208
*81 AND2_50
*82 G358
*83 NOT_190
*84 NOT_189
*85 G212
*86 AND2_40
*87 G356
*88 NOT_129
*89 NOT_128
*90 G210
*91 AND2_24
*92 G359
*93 NOT_127
*94 NOT_125
*95 G214
*96 AND2_22
*97 G265
*98 OR4_0
*99 AND3_3
*100 G266
*101 AND4_4
*102 G267
*103 AND2_55
*104 IIII546
*105 OR3_8
*106 G270
*107 NOT_263
*108 G238
*109 OR2_2
*110 AND2_56
*111 G254
*112 AND2_58
*113 G287
*114 NOT_259
*115 G225
*116 NOT_66
*117 G241
*118 AND3_17
*119 G256
*120 AND3_9
*121 G229
*122 OR3_7
*123 AND2_29
*124 G245
*125 AND2_30
*126 G260
*127 AND3_16
*128 G274
*129 NOT_256
*130 G228
*131 OR3_6
*132 AND2_42
*133 G244
*134 AND2_43
*135 G259
*136 AND4_11
*137 G273
*138 NOT_255
*139 G227
*140 OR3_5
*141 AND2_33
*142 G243
*143 AND2_34
*144 G258
*145 AND4_10
*146 G272
*147 NOT_254
*148 G226
*149 OR3_4
*150 AND2_52
*151 G242
*152 AND2_53
*153 G257
*154 AND4_8
*155 G271
*156 NOT_251
*157 G230
*158 OR2_1
*159 AND2_45
*160 G246
*161 AND2_47
*162 G279
*163 NOT_216
*164 G231
*165 OR3_3
*166 G247
*167 G261
*168 AND3_7
*169 G280
*170 NOT_210
*171 G236
*172 OR2_0
*173 AND2_35
*174 G252
*175 AND2_37
*176 G285
*177 NOT_172
*178 G233
*179 OR3_2
*180 G249
*181 AND3_1
*182 G263
*183 G282
*184 NOT_166
*185 G234
*186 OR3_1
*187 G67
*188 DFF_3
*189 G264
*190 G283
*191 NOT_92
*192 G232
*193 OR3_0
*194 G248
*195 G65
*196 DFF_1
*197 G281
*198 NOT_91
*199 G298
*200 AND2_59
*201 NOT_271
*202 G353
*203 NOT_230
*204 G370
*205 AND2_57
*206 NOT_248
*207 G371
*208 AND4_9
*209 NOT_109
*210 NOT_103
*211 G239
*212 NOT_252
*213 G372
*214 IIII537
*215 IIII538
*216 AND4_7
*217 G390
*218 NOT_67
*219 IIII495
*220 AND3_15
*221 G395
*222 AND3_12
*223 AND3_11
*224 AND4_6
*225 AND4_5
*226 AND3_6
*227 NOT_201
*228 G383
*229 NOT_154
*230 NOT_148
*231 IIII524
*232 AND3_14
*233 G362
*234 NOT_32
*235 G377
*236 AND3_8
*237 NOT_207
*238 NOT_202
*239 G381
*240 AND2_46
*241 NOT_107
*242 NOT_99
*243 IIII521
*244 AND3_13
*245 G361
*246 NOT_31
*247 G373
*248 AND3_2
*249 NOT_162
*250 NOT_156
*251 G375
*252 AND2_36
*253 NOT_108
*254 NOT_101
*255 IIII518
*256 G369
*257 NOT_244
*258 G363
*259 NOT_33
*260 IIII515
*261 G365
*262 NOT_63
*263 G368
*264 NOT_64
*265 G352
*266 NOT_29
*267 G391
*268 NOT_243
*269 G393
*270 AND3_10
*271 AND3_4
*272 NOT_163
*273 G397
*274 NOT_155
*275 AND3_5
*276 IIII553
*277 G275
*278 NOT_249
*279 G301
*280 AND2_54
*281 NOT_240
*282 G103
*283 NOT_247
*284 G366
*285 AND2_32
*286 AND2_31
*287 NOT_1
*288 G150
*289 NOT_242
*290 NOT_239
*291 G348
*292 AND2_51
*293 NOT_238
*294 G95
*295 NOT_245
*296 G209
*297 NOT_49
*298 G300
*299 NOT_236
*300 NOT_235
*301 G120
*302 AND2_49
*303 G121
*304 NOT_47
*305 G347
*306 NOT_234
*307 NOT_233
*308 G327
*309 AND2_48
*310 NOT_223
*311 G86
*312 NOT_225
*313 NOT_224
*314 G357
*315 NOT_188
*316 G378
*317 G235
*318 NOT_212
*319 G382
*320 IIII512
*321 G387
*322 NOT_65
*323 G364
*324 NOT_34
*325 G392
*326 NOT_158
*327 G276
*328 NOT_209
*329 G262
*330 IIII527
*331 G307
*332 AND2_44
*333 NOT_198
*334 G105
*335 NOT_206
*336 G158
*337 NOT_200
*338 NOT_197
*339 G277
*340 NOT_205
*341 G336
*342 AND2_41
*343 NOT_196
*344 G99
*345 NOT_203
*346 G213
*347 NOT_53
*348 G306
*349 NOT_194
*350 NOT_193
*351 G112
*352 AND2_39
*353 G113
*354 NOT_41
*355 G335
*356 NOT_192
*357 NOT_191
*358 G331
*359 AND2_38
*360 NOT_181
*361 G88
*362 NOT_183
*363 NOT_182
*364 G64
*365 DFF_0
*366 G355
*367 NOT_126
*368 G374
*369 G237
*370 NOT_167
*371 G376
*372 IIII533
*373 G367
*374 NOT_35
*375 G66
*376 DFF_2
*377 G396
*378 NOT_150
*379 G278
*380 NOT_161
*381 G250
*382 G304
*383 AND2_28
*384 NOT_147
*385 G104
*386 NOT_159
*387 G342
*388 AND2_27
*389 NOT_145
*390 G97
*391 NOT_157
*392 G310
*393 AND2_26
*394 NOT_137
*395 G106
*396 NOT_151
*397 G294
*398 AND2_25
*399 NOT_135
*400 G101
*401 NOT_149
*402 G211
*403 NOT_51
*404 G303
*405 NOT_141
*406 NOT_140
*407 G116
*408 AND2_23
*409 G117
*410 NOT_43
*411 G341
*412 NOT_139
*413 NOT_138
*414 G215
*415 NOT_54
*416 G309
*417 NOT_133
*418 NOT_132
*419 G108
*420 AND2_21
*421 G109
*422 NOT_50
*423 G293
*424 NOT_131
*425 NOT_130
*426 G333
*427 AND2_20
*428 NOT_113
*429 G89
*430 NOT_117
*431 NOT_116
*432 G329
*433 AND2_19
*434 NOT_112
*435 G87
*436 NOT_115
*437 NOT_114
*438 G350
*439 AND2_18
*440 NOT_96
*441 G322
*442 AND2_17
*443 NOT_89
*444 G319
*445 AND2_16
*446 NOT_88
*447 G316
*448 AND2_15
*449 NOT_87
*450 G313
*451 AND2_14
*452 NOT_86
*453 G345
*454 AND2_13
*455 NOT_85
*456 G96
*457 NOT_104
*458 G339
*459 AND2_12
*460 NOT_83
*461 G98
*462 NOT_102
*463 G325
*464 AND2_11
*465 NOT_81
*466 G100
*467 NOT_100
*468 G222
*469 AND2_6
*470 NOT_62
*471 G223
*472 NOT_48
*473 G321
*474 NOT_78
*475 G220
*476 AND2_5
*477 NOT_61
*478 G221
*479 NOT_46
*480 G318
*481 NOT_77
*482 G218
*483 AND2_4
*484 NOT_60
*485 G219
*486 NOT_44
*487 G315
*488 NOT_76
*489 G216
*490 AND2_3
*491 NOT_59
*492 G217
*493 NOT_55
*494 G312
*495 NOT_75
*496 G118
*497 AND2_2
*498 NOT_58
*499 G119
*500 NOT_45
*501 G344
*502 NOT_74
*503 NOT_73
*504 G114
*505 AND2_1
*506 NOT_57
*507 G115
*508 NOT_42
*509 G338
*510 NOT_72
*511 NOT_71
*512 G110
*513 AND2_0
*514 NOT_56
*515 G111
*516 NOT_52
*517 G324
*518 NOT_70
*519 NOT_69
*520 G386
*521 AND3_0
*522 NOT_36
*523 G388
*524 NOT_37
*525 G389
*526 NOT_38
*527 G289
*528 NOT_68
*529 II608
*530 NOT_270
*531 G124
*532 NOT_269
*533 IIII224
*534 NOT_266
*535 IIII343
*536 NOT_268
*537 NOT_265
*538 G141
*539 DFF_9
*540 IIII350
*541 NOT_267
*542 NOT_264
*543 G142
*544 DFF_10
*545 IIII222
*546 IIII341
*547 IIII348
*548 NOT_258
*549 IIII251
*550 NOT_262
*551 G128
*552 DFF_14
*553 IIII244
*554 NOT_261
*555 G127
*556 DFF_13
*557 IIII237
*558 NOT_260
*559 G126
*560 DFF_12
*561 G288
*562 NOT_253
*563 IIII230
*564 NOT_257
*565 G125
*566 DFF_11
*567 II511
*568 IIII258
*569 NOT_250
*570 G129
*571 DFF_15
*572 II551
*573 NOT_246
*574 G380
*575 II547
*576 NOT_241
*577 G206
*578 NOT_237
*579 II544
*580 II541
*581 II538
*582 II535
*583 II527
*584 NOT_229
*585 G169
*586 NOT_228
*587 II524
*588 NOT_227
*589 G168
*590 NOT_226
*591 IIII398
*592 II517
*593 NOT_220
*594 IIII287
*595 NOT_222
*596 NOT_219
*597 G133
*598 DFF_5
*599 IIII322
*600 NOT_221
*601 NOT_218
*602 DFF_6
*603 G134
*604 NOT_217
*605 IIII285
*606 IIII320
*607 NOT_215
*608 IIII294
*609 NOT_214
*610 G284
*611 NOT_213
*612 IIII292
*613 II440
*614 IIII265
*615 NOT_211
*616 G130
*617 DFF_16
*618 IIII272
*619 NOT_208
*620 G131
*621 DFF_17
*622 II476
*623 NOT_204
*624 G394
*625 II472
*626 NOT_199
*627 G190
*628 NOT_195
*629 II469
*630 II466
*631 II463
*632 II460
*633 II452
*634 NOT_187
*635 G179
*636 NOT_186
*637 II449
*638 NOT_185
*639 G178
*640 NOT_184
*641 IIII414
*642 II442
*643 NOT_178
*644 IIII329
*645 NOT_180
*646 NOT_176
*647 G139
*648 DFF_7
*649 IIII336
*650 NOT_179
*651 NOT_175
*652 G140
*653 DFF_8
*654 G136
*655 NOT_174
*656 IIII210
*657 NOT_177
*658 NOT_173
*659 G122
*660 DFF_4
*661 IIII327
*662 IIII334
*663 NOT_171
*664 IIII308
*665 NOT_170
*666 IIII208
*667 NOT_169
*668 G286
*669 NOT_168
*670 IIII306
*671 G224
*672 NOT_164
*673 II373
*674 IIII279
*675 NOT_165
*676 G132
*677 DFF_18
*678 IIII476
*679 NOT_160
*680 G384
*681 II390
*682 NOT_153
*683 II386
*684 NOT_152
*685 G154
*686 NOT_146
*687 G198
*688 NOT_144
*689 II382
*690 NOT_143
*691 II378
*692 NOT_142
*693 II375
*694 II372
*695 II369
*696 II366
*697 G162
*698 NOT_136
*699 G146
*700 NOT_134
*701 II363
*702 II360
*703 II357
*704 II354
*705 II341
*706 NOT_124
*707 G184
*708 NOT_123
*709 G174
*710 NOT_122
*711 II338
*712 NOT_121
*713 II335
*714 NOT_120
*715 G183
*716 NOT_119
*717 G173
*718 NOT_118
*719 IIII422
*720 IIII406
*721 II324
*722 NOT_111
*723 II321
*724 NOT_110
*725 G137
*726 NOT_106
*727 G135
*728 NOT_105
*729 IIII315
*730 NOT_98
*731 IIII301
*732 NOT_97
*733 II295
*734 NOT_95
*735 II291
*736 NOT_94
*737 II287
*738 NOT_93
*739 IIII313
*740 IIII299
*741 II303
*742 NOT_90
*743 G202
*744 NOT_84
*745 G194
*746 NOT_82
*747 G166
*748 NOT_80
*749 G143
*750 NOT_79
*751 II281
*752 II278
*753 II275
*754 II272
*755 II269
*756 II266
*757 II263
*758 II260
*759 II257
*760 II254
*761 IIII356
*762 G360
*763 NOT_30
*764 II211
*765 NOT_28
*766 II208
*767 NOT_27
*768 II205
*769 NOT_26
*770 II202
*771 NOT_25
*772 II199
*773 NOT_24
*774 II196
*775 NOT_23
*776 II193
*777 NOT_22
*778 II190
*779 NOT_21
*780 II187
*781 NOT_20
*782 II184
*783 NOT_19
*784 II181
*785 NOT_18
*786 II178
*787 NOT_17
*788 II175
*789 NOT_16
*790 II172
*791 NOT_15
*792 II169
*793 NOT_14
*794 IIII178
*795 NOT_40
*796 NOT_13
*797 II165
*798 NOT_39
*799 NOT_12
*800 IIII687
*801 NOT_11
*802 IIII684
*803 NOT_10
*804 IIII680
*805 NOT_9
*806 IIII660
*807 NOT_8
*808 IIII655
*809 NOT_7
*810 IIII652
*811 NOT_6
*812 IIII649
*813 NOT_5
*814 IIII646
*815 NOT_4
*816 IIII643
*817 NOT_3
*818 IIII633
*819 NOT_0
*820 G79
*821 G78
*822 G77
*823 G69
*824 G76
*825 G68
*826 G75
*827 G82
*828 G74
*829 G81
*830 G73
*831 G80
*832 G72
*833 G71
*834 G70

*PORTS
*1 I *L 0.0 *S 0.0 0.0
*2 I *L 0.0 *S 0.0 0.0
*3 I *L 0.0 *S 0.0 0.0
*4 I *L 0.0 *S 0.0 0.0
*5 I *L 0.0 *S 0.0 0.0
*6 I *L 0.0 *S 0.0 0.0
*7 I *L 0.0 *S 0.0 0.0
*8 I *L 0.0 *S 0.0 0.0
*9 I *L 0.0 *S 0.0 0.0
*10 I *L 0.0 *S 0.0 0.0
*11 I *L 0.0 *S 0.0 0.0
*12 I *L 0.0 *S 0.0 0.0
*13 I *L 0.0 *S 0.0 0.0
*14 I *L 0.0 *S 0.0 0.0
*15 I *L 0.0 *S 0.0 0.0
*16 I *L 0.0 *S 0.0 0.0
*17 I *L 0.0 *S 0.0 0.0
*18 I *L 0.0 *S 0.0 0.0
*19 I *L 0.0 *S 0.0 0.0
*20 I *L 0.0 *S 0.0 0.0
*21 I *L 0.0 *S 0.0 0.0
*22 I *L 0.0 *S 0.0 0.0
*23 I *L 0.0 *S 0.0 0.0
*24 I *L 0.0 *S 0.0 0.0
*25 I *L 0.0 *S 0.0 0.0
*26 I *L 0.0 *S 0.0 0.0
*27 I *L 0.0 *S 0.0 0.0
*28 I *L 0.0 *S 0.0 0.0
*29 I *L 0.0 *S 0.0 0.0
*30 I *L 0.0 *S 0.0 0.0
*31 I *L 0.0 *S 0.0 0.0
*32 I *L 0.0 *S 0.0 0.0
*33 I *L 0.0 *S 0.0 0.0
*34 I *L 0.0 *S 0.0 0.0
*35 I *L 0.0 *S 0.0 0.0
*36 I *L 0.0 *S 0.0 0.0
*37 I *L 0.0 *S 0.0 0.0
*38 I *L 0.0 *S 0.0 0.0
*39 O *L 0.0 *S 0.0 0.0
*40 O *L 0.0 *S 0.0 0.0
*41 O *L 0.0 *S 0.0 0.0
*42 O *L 0.0 *S 0.0 0.0
*43 O *L 0.0 *S 0.0 0.0
*44 O *L 0.0 *S 0.0 0.0
*45 O *L 0.0 *S 0.0 0.0
*46 O *L 0.0 *S 0.0 0.0
*47 O *L 0.0 *S 0.0 0.0
*48 O *L 0.0 *S 0.0 0.0
*49 O *L 0.0 *S 0.0 0.0
*50 O *L 0.0 *S 0.0 0.0
*51 O *L 0.0 *S 0.0 0.0
*52 O *L 0.0 *S 0.0 0.0
*53 O *L 0.0 *S 0.0 0.0
*54 O *L 0.0 *S 0.0 0.0
*55 O *L 0.0 *S 0.0 0.0
*56 O *L 0.0 *S 0.0 0.0
*57 O *L 0.0 *S 0.0 0.0
*58 O *L 0.0 *S 0.0 0.0
*59 O *L 0.0 *S 0.0 0.0
*60 O *L 0.0 *S 0.0 0.0
*61 O *L 0.0 *S 0.0 0.0
*62 O *L 0.0 *S 0.0 0.0

*D_NET *63 4.015107

*CONN
*I *64:A1 I *L 1060.224 *C 14.915 5.27
*I *65:A1 I *L 1060.224 *C 13.612 6.512
*I *66:A1 I *L 1060.224 *C 14.942 10.887
*I *67:A1 I *L 1060.224 *C 14.345 9.33
*I *68:ZN O *L 0.0 *D INV_X1 *C 16.055 5.13
*I *69:A1 I *L 1841.374 *C 5.197 10.887
*I *70:A1 I *L 1841.374 *C 4.465 10.87
*I *71:A1 I *L 1841.374 *C 3.705 10.87
*I *72:A1 I *L 1841.374 *C 16.407 10.887
*I *73:A1 I *L 985.6949 *C 13.585 5.27
*I *74:A1 I *L 985.6949 *C 13.232 8.087
*I *75:A1 I *L 985.6949 *C 13.775 10.87
*I *76:A1 I *L 985.6949 *C 13.205 9.33
*N *63:14 *C 13.205 7.93
*N *63:15 *C 13.205 7.93
*N *63:16 *C 13.205 7.93
*N *63:17 *C 13.255 9.19
*N *63:18 *C 13.255 9.19
*N *63:19 *C 13.255 9.19
*N *63:20 *C 13.255 9.19
*N *63:21 *C 3.705 10.73
*N *63:22 *C 3.705 10.73
*N *63:23 *C 3.705 10.87
*N *63:24 *C 15.775 5.41
*N *63:25 *C 15.775 5.41
*N *63:26 *C 15.775 9.19
*N *63:27 *C 15.775 9.19
*N *63:28 *C 16.055 5.13
*N *63:29 *C 15.865 5.41
*N *63:30 *C 4.655 10.73
*N *63:31 *C 4.655 10.73
*N *63:32 *C 14.915 5.27
*N *63:33 *C 14.915 5.41
*N *63:34 *C 14.915 5.41
*N *63:35 *C 13.585 5.27
*N *63:36 *C 13.585 5.55
*N *63:37 *C 13.585 5.55
*N *63:38 *C 13.585 7.79
*N *63:39 *C 13.585 7.79
*N *63:40 *C 13.585 6.67
*N *63:41 *C 13.585 6.67
*N *63:42 *C 13.775 10.87
*N *63:43 *C 13.775 10.45
*N *63:44 *C 13.775 10.45
*N *63:45 *C 15.865 9.19
*N *63:46 *C 15.865 9.19
*N *63:47 *C 13.205 9.33
*N *63:48 *C 13.205 9.19
*N *63:49 *C 13.205 9.19
*N *63:50 *C 13.535 10.45
*N *63:51 *C 13.535 10.45
*N *63:52 *C 13.535 10.45
*N *63:53 *C 13.535 10.45
*N *63:54 *C 13.255 7.93
*N *63:55 *C 13.255 7.93
*N *63:56 *C 13.255 7.93
*N *63:57 *C 13.255 7.93
*N *63:58 *C 16.435 10.31
*N *63:59 *C 16.435 10.31
*N *63:60 *C 14.915 10.73
*N *63:61 *C 14.915 10.73
*N *63:62 *C 14.915 10.73
*N *63:63 *C 4.465 10.87
*N *63:64 *C 16.435 10.73
*N *63:65 *C 16.435 10.73
*N *63:66 *C 5.225 10.73
*N *63:67 *C 5.225 10.73
*N *63:68 *C 14.725 9.19
*N *63:69 *C 14.725 9.19
*N *63:70 *C 14.345 9.33
*N *63:71 *C 4.655 10.87
*N *63:72 *C 14.345 9.19
*N *63:73 *C 16.055 5.41
*N *63:74 *C 15.865 9.75
*N *63:75 *C 16.245 9.75
*N *63:76 *C 16.245 10.31
*N *63:77 *C 7.655 10.73
*N *63:78 *C 7.655 10.59
*N *63:79 *C 9.335 10.59
*N *63:80 *C 9.335 10.45
*N *63:81 *C 13.255 7.79
*N *63:82 *C 14.915 5.55
*N *63:83 *C 15.865 10.73
*N *63:84 *C 15.865 10.31
*N *63:85 *C 13.255 9.19
*N *63:86 *C 13.535 9.19

*CAP
1 *64:A1 0.0
2 *65:A1 0.006439341
3 *66:A1 0.009723065
4 *67:A1 0.0
5 *68:ZN 0.0
6 *69:A1 0.006428452
7 *70:A1 0.0
8 *71:A1 0.0
9 *72:A1 0.006377224
10 *73:A1 0.0
11 *74:A1 0.007851498
12 *75:A1 0.0
13 *76:A1 0.0
14 *63:14 0.0
15 *63:15 0.01129087
16 *63:16 0.01914237
17 *63:17 0.04059111
18 *63:18 0.002803585
19 *63:19 0.01710823
20 *63:20 0.1371644
21 *63:21 0.05614996
22 *63:22 0.01483367
23 *63:23 0.01744425
24 *63:24 0.2225152
25 *63:25 0.04361147
26 *63:26 0.2225152
27 *63:27 0.08683077
28 *63:28 0.02411434
29 *63:29 0.0183779
30 *63:30 0.2069539
31 *63:31 0.0362879
32 *63:32 0.02304607
33 *63:33 0.05192933
34 *63:34 0.02303303
35 *63:35 0.03572086
36 *63:36 0.08613905
37 *63:37 0.03570782
38 *63:38 0.02189781
39 *63:39 0.07746277
40 *63:40 0.07748885
41 *63:41 0.001270356
42 *63:42 0.05029989
43 *63:43 0.01807476
44 *63:44 0.04768931
45 *63:45 0.01206758
46 *63:46 0.03816118
47 *63:47 0.007178621
48 *63:48 0.01362478
49 *63:49 0.004568041
50 *63:50 0.05167786
51 *63:51 0.001066299
52 *63:52 0.02104123
53 *63:53 0.339655
54 *63:54 0.03628988
55 *63:55 0.002016315
56 *63:56 0.01872245
57 *63:57 0.02087271
58 *63:58 0.018119
59 *63:59 0.03231495
60 *63:60 0.05617818
61 *63:61 0.01077646
62 *63:62 0.02049953
63 *63:63 0.01609529
64 *63:64 0.02516511
65 *63:65 0.00120824
66 *63:66 0.03248669
67 *63:67 0.003843959
68 *63:68 0.1830713
69 *63:69 0.0305033
70 *63:70 0.0112122
71 *63:71 0.02249403
72 *63:72 0.04689754
73 *63:73 0.05027181
74 *63:74 0.06303874
75 *63:75 0.04242584
76 *63:76 0.02991928
77 *63:77 0.1567234
78 *63:78 0.08354703
79 *63:79 0.08537722
80 *63:80 0.3135489
81 *63:81 0.03313265
82 *63:82 0.0944569
83 *63:83 0.0814269
84 *63:84 0.04596524
85 *63:85 0.01946473
86 *63:86 0.07368605

*RES
1 *63:14 *63:15 22.5
2 *74:A1 *63:16 0.1500072
3 *63:15 *63:16 22.5
4 *63:17 *63:18 5.625
5 *63:18 *63:19 5.625
6 *63:19 *63:20 22.5
7 *63:21 *63:22 22.5
8 *63:23 *71:A1 22.5
9 *63:24 *63:25 22.5
10 *63:26 *63:27 22.5
11 *63:28 *68:ZN 22.5
12 *63:25 *63:29 22.5
13 *63:30 *63:31 22.5
14 *63:32 *64:A1 22.5
15 *63:33 *63:34 22.5
16 *63:35 *73:A1 22.5
17 *63:36 *63:37 22.5
18 *63:38 *63:39 22.5
19 *65:A1 *63:41 0.149193
20 *63:40 *63:41 22.5
21 *63:42 *75:A1 22.5
22 *63:43 *63:44 22.5
23 *63:45 *63:46 22.5
24 *63:47 *76:A1 22.5
25 *63:48 *63:49 22.5
26 *63:50 *63:51 5.625
27 *63:51 *63:52 5.625
28 *63:52 *63:53 22.5
29 *63:54 *63:55 5.625
30 *63:55 *63:56 5.625
31 *63:56 *63:57 22.5
32 *63:58 *63:59 22.5
33 *63:60 *63:61 22.5
34 *63:61 *63:62 22.5
35 *63:63 *70:A1 22.5
36 *72:A1 *63:65 0.1487859
37 *63:64 *63:65 22.5
38 *69:A1 *63:67 0.1491866
39 *63:66 *63:67 22.5
40 *63:68 *63:69 22.5
41 *63:70 *67:A1 22.5
42 *63:62 *66:A1 0.2892327
43 *63:22 *63:23 0.452859
44 *63:63 *63:71 0.7572048
45 *63:31 *63:71 0.2146905
46 *63:31 *63:66 1.670883
47 *63:49 *63:47 0.1334088
48 *63:35 *63:37 0.9385864
49 *63:40 *63:39 2.9552
50 *63:44 *63:42 0.798981
51 *63:72 *63:69 0.9920866
52 *63:72 *63:70 0.5192363
53 *63:32 *63:34 0.3995648
54 *63:29 *63:73 0.3721147
55 *63:46 *63:74 1.268965
56 *63:74 *63:75 0.9920866
57 *63:28 *63:73 0.6042445
58 *63:75 *63:76 1.5464
59 *63:76 *63:59 0.3506215
60 *63:59 *63:64 1.330104
61 *63:21 *63:30 2.649168
62 *63:30 *63:77 8.206307
63 *63:78 *63:77 0.4163539
64 *63:78 *63:79 4.731779
65 *63:80 *63:79 0.4965593
66 *63:80 *63:53 16.26505
67 *63:53 *63:43 1.049864
68 *63:14 *63:57 0.1038842
69 *63:48 *63:20 0.1010528
70 *63:81 *63:38 0.9651116
71 *63:81 *63:57 0.3116525
72 *63:20 *63:68 6.099657
73 *63:68 *63:27 4.193895
74 *63:27 *63:45 0.09154576
75 *63:36 *63:82 4.270046
76 *63:33 *63:25 3.560898
77 *63:33 *63:82 0.3089613
78 *63:60 *63:83 3.291794
79 *63:84 *63:83 1.23223
80 *63:84 *63:58 1.460511
81 *63:24 *63:26 6.963341
82 *63:54 *63:17 2.428318
83 *63:17 *63:85 0.2553928
84 *63:85 *63:86 0.7661784
85 *63:86 *63:50 2.301964

*END

*D_NET *77 0.4393443

*CONN
*I *69:A2 I *L 1883.517 *C 4.845 10.87
*I *78:A I *L 1938.113 *C 5.985 10.87
*I *79:ZN O *L 0.0 *D INV_X1 *C 7.125 11.71
*N *77:4 *C 4.845 10.87
*N *77:5 *C 4.845 11.01
*N *77:6 *C 4.845 11.01
*N *77:7 *C 7.125 11.71
*N *77:8 *C 7.125 11.01
*N *77:9 *C 7.125 11.01
*N *77:10 *C 5.985 10.87
*N *77:11 *C 5.985 11.01
*N *77:12 *C 5.985 11.01

*CAP
1 *69:A2 0.0
2 *78:A 0.0
3 *79:ZN 0.0
4 *77:4 0.02544934
5 *77:5 0.05826152
6 *77:6 0.02543629
7 *77:7 0.05904558
8 *77:8 0.06074934
9 *77:9 0.056435
10 *77:10 0.01748471
11 *77:11 0.1216084
12 *77:12 0.01487413

*RES
1 *77:4 *69:A2 22.5
2 *77:5 *77:6 22.5
3 *77:7 *79:ZN 22.5
4 *77:8 *77:9 22.5
5 *77:10 *78:A 22.5
6 *77:11 *77:12 22.5
7 *77:4 *77:6 0.429156
8 *77:10 *77:12 0.4636381
9 *77:9 *77:7 1.923872
10 *77:5 *77:11 2.684993
11 *77:11 *77:8 2.711816

*END

*D_NET *80 0.4008594

*CONN
*I *69:ZN O *L 0.0 *D NAND2_X1 *C 5.035 10.31
*I *81:A1 I *L 1060.224 *C 3.705 9.33
*N *80:3 *C 5.035 10.31
*N *80:4 *C 5.035 10.31
*N *80:5 *C 5.135 10.31
*N *80:6 *C 5.135 9.75
*N *80:7 *C 5.135 9.75
*N *80:8 *C 3.705 9.75
*N *80:9 *C 3.705 9.75
*N *80:10 *C 3.705 9.33

*CAP
1 *69:ZN 0.0
2 *81:A1 0.0
3 *80:3 0.008275154
4 *80:4 0.01858668
5 *80:5 0.05848872
6 *80:6 0.04810313
7 *80:7 0.09495511
8 *80:8 0.09502919
9 *80:9 0.03740543
10 *80:10 0.04001601

*RES
1 *80:3 *69:ZN 22.5
2 *80:4 *80:3 22.5
3 *80:5 *80:4 22.5
4 *80:6 *80:7 22.5
5 *80:8 *80:9 22.5
6 *80:10 *81:A1 22.5
7 *80:10 *80:9 0.9956949
8 *80:8 *80:7 4.966092
9 *80:6 *80:5 1.24084

*END

*D_NET *82 0.8967577

*CONN
*I *70:A2 I *L 1883.517 *C 4.085 10.87
*I *83:A I *L 1938.113 *C 4.275 13.67
*I *84:ZN O *L 0.0 *D INV_X1 *C 4.085 14.51
*N *82:4 *C 4.085 14.51
*N *82:5 *C 4.275 13.67
*N *82:6 *C 4.085 10.87
*N *82:7 *C 4.085 10.87
*N *82:8 *C 2.615 10.87
*N *82:9 *C 2.615 10.87
*N *82:10 *C 2.615 13.53
*N *82:11 *C 2.615 13.53
*N *82:12 *C 4.275 13.53
*N *82:13 *C 4.275 13.53
*N *82:14 *C 4.275 14.51

*CAP
1 *70:A2 0.0
2 *83:A 0.0
3 *84:ZN 0.0
4 *82:4 0.02080823
5 *82:5 0.0562636
6 *82:6 0.005760233
7 *82:7 0.1155109
8 *82:8 0.1758683
9 *82:9 0.1044815
10 *82:10 0.1758683
11 *82:11 0.08253843
12 *82:12 0.08261251
13 *82:13 0.01013516
14 *82:14 0.06691057

*RES
1 *82:4 *84:ZN 22.5
2 *82:5 *83:A 22.5
3 *82:6 *70:A2 22.5
4 *82:7 *82:6 22.5
5 *82:8 *82:9 22.5
6 *82:10 *82:11 22.5
7 *82:12 *82:13 22.5
8 *82:4 *82:14 0.4561405
9 *82:13 *82:5 0.3956712
10 *82:5 *82:14 2.062169
11 *82:9 *82:7 6.397444
12 *82:11 *82:12 4.150545
13 *82:8 *82:10 4.995892

*END

*D_NET *85 0.2288555

*CONN
*I *70:ZN O *L 0.0 *D NAND2_X1 *C 4.275 10.31
*I *86:A1 I *L 1060.224 *C 4.465 9.33
*N *85:3 *C 4.275 10.31
*N *85:4 *C 4.275 10.31
*N *85:5 *C 4.655 10.31
*N *85:6 *C 4.655 10.31
*N *85:7 *C 4.465 9.33
*N *85:8 *C 4.465 9.61
*N *85:9 *C 4.655 9.61

*CAP
1 *70:ZN 0.0
2 *86:A1 0.0
3 *85:3 0.00758507
4 *85:4 0.03630319
5 *85:5 0.02352305
6 *85:6 0.04483458
7 *85:7 0.02237768
8 *85:8 0.03458221
9 *85:9 0.05964968

*RES
1 *85:3 *70:ZN 22.5
2 *85:4 *85:3 22.5
3 *85:5 *85:6 22.5
4 *85:7 *86:A1 22.5
5 *85:7 *85:8 0.9996287
6 *85:8 *85:9 0.4844952
7 *85:9 *85:6 1.54697
8 *85:4 *85:5 1.264931

*END

*D_NET *87 1.247477

*CONN
*I *71:A2 I *L 1883.517 *C 3.325 10.87
*I *88:A I *L 1938.113 *C 4.275 17.73
*I *89:ZN O *L 0.0 *D INV_X1 *C 4.275 16.33
*N *87:4 *C 4.275 17.73
*N *87:5 *C 4.275 16.33
*N *87:6 *C 3.325 10.87
*N *87:7 *C 3.325 11.01
*N *87:8 *C 3.325 11.01
*N *87:9 *C 2.335 11.01
*N *87:10 *C 2.335 11.01
*N *87:11 *C 2.335 16.33
*N *87:12 *C 2.335 16.33
*N *87:13 *C 4.275 16.33

*CAP
1 *71:A2 0.0
2 *88:A 0.0
3 *89:ZN 0.0
4 *87:4 0.1005754
5 *87:5 0.09796483
6 *87:6 0.01774801
7 *87:7 0.0625749
8 *87:8 0.01513743
9 *87:9 0.3205712
10 *87:10 0.06250083
11 *87:11 0.3205712
12 *87:12 0.1248796
13 *87:13 0.1249537

*RES
1 *87:4 *88:A 22.5
2 *87:5 *89:ZN 22.5
3 *87:6 *71:A2 22.5
4 *87:7 *87:8 22.5
5 *87:9 *87:10 22.5
6 *87:11 *87:12 22.5
7 *87:13 *87:5 22.5
8 *87:6 *87:8 0.455862
9 *87:5 *87:4 4.135347
10 *87:10 *87:7 3.065458
11 *87:12 *87:13 6.148221
12 *87:9 *87:11 9.712899

*END

*D_NET *90 0.4956987

*CONN
*I *71:ZN O *L 0.0 *D NAND2_X1 *C 3.515 10.31
*I *91:A1 I *L 1060.224 *C 1.995 8.07
*N *90:3 *C 3.515 10.31
*N *90:4 *C 3.515 10.31
*N *90:5 *C 1.995 10.31
*N *90:6 *C 1.995 10.31
*N *90:7 *C 1.995 8.07

*CAP
1 *71:ZN 0.0
2 *91:A1 0.0
3 *90:3 0.008614676
4 *90:4 0.08930511
5 *90:5 0.07549536
6 *90:6 0.1598365
7 *90:7 0.1624471

*RES
1 *90:3 *71:ZN 22.5
2 *90:4 *90:3 22.5
3 *90:5 *90:6 22.5
4 *90:7 *91:A1 22.5
5 *90:7 *90:6 6.512633
6 *90:5 *90:4 3.85675

*END

*D_NET *92 1.429893

*CONN
*I *72:A2 I *L 1883.517 *C 16.055 10.87
*I *93:A I *L 1938.113 *C 13.395 16.47
*I *94:ZN O *L 0.0 *D INV_X1 *C 15.105 14.79
*N *92:4 *C 13.395 16.47
*N *92:5 *C 13.585 14.79
*N *92:6 *C 13.585 14.79
*N *92:7 *C 16.055 10.87
*N *92:8 *C 16.055 11.01
*N *92:9 *C 16.055 11.01
*N *92:10 *C 13.535 11.01
*N *92:11 *C 13.535 11.01
*N *92:12 *C 13.535 14.79
*N *92:13 *C 15.105 14.79
*N *92:14 *C 15.105 14.79
*N *92:15 *C 13.585 16.47

*CAP
1 *72:A2 0.0
2 *93:A 0.0
3 *94:ZN 0.0
4 *92:4 0.01791495
5 *92:5 0.1222276
6 *92:6 0.112294
7 *92:7 0.02004243
8 *92:8 0.1836891
9 *92:9 0.01743185
10 *92:10 0.2482265
11 *92:11 0.183615
12 *92:12 0.2482265
13 *92:13 0.006668446
14 *92:14 0.1341652
15 *92:15 0.135391

*RES
1 *92:4 *93:A 22.5
2 *92:5 *92:6 22.5
3 *92:7 *72:A2 22.5
4 *92:8 *92:9 22.5
5 *92:10 *92:11 22.5
6 *92:12 *92:5 22.5
7 *92:13 *94:ZN 22.5
8 *92:14 *92:13 22.5
9 *92:4 *92:15 0.7701724
10 *92:6 *92:15 4.418095
11 *92:7 *92:9 0.4694594
12 *92:11 *92:8 8.991458
13 *92:5 *92:14 6.527587
14 *92:10 *92:12 6.993446

*END

*D_NET *95 0.5057933

*CONN
*I *72:ZN O *L 0.0 *D NAND2_X1 *C 16.245 10.59
*I *96:A1 I *L 1060.224 *C 17.575 12.13
*N *95:3 *C 16.245 10.59
*N *95:4 *C 16.245 10.59
*N *95:5 *C 17.735 10.59
*N *95:6 *C 17.735 10.59
*N *95:7 *C 17.735 11.85
*N *95:8 *C 17.735 11.85
*N *95:9 *C 17.575 11.85
*N *95:10 *C 17.575 11.85
*N *95:11 *C 17.575 12.13

*CAP
1 *72:ZN 0.0
2 *96:A1 0.0
3 *95:3 0.008795646
4 *95:4 0.1179477
5 *95:5 0.0864725
6 *95:6 0.1038829
7 *95:7 0.0864725
8 *95:8 0.0177944
9 *95:9 0.01786847
10 *95:10 0.03197435
11 *95:11 0.03458492

*RES
1 *95:3 *72:ZN 22.5
2 *95:4 *95:3 22.5
3 *95:5 *95:6 22.5
4 *95:7 *95:8 22.5
5 *95:9 *95:10 22.5
6 *95:11 *96:A1 22.5
7 *95:10 *95:11 0.4058176
8 *95:4 *95:6 5.071886
9 *95:9 *95:8 0.7690788
10 *95:5 *95:7 2.48168

*END

*D_NET *97 0.270521

*CONN
*I *98:A1 I *L 975.4661 *C 12.635 11.01
*I *99:ZN O *L 0.0 *D AND3_X1 *C 11.495 11.29
*N *97:3 *C 11.495 11.29
*N *97:4 *C 11.495 11.43
*N *97:5 *C 11.495 11.43
*N *97:6 *C 12.635 11.43
*N *97:7 *C 12.635 11.43
*N *97:8 *C 12.635 11.01

*CAP
1 *98:A1 0.009440582
2 *99:ZN 0.0
3 *97:3 0.005944728
4 *97:4 0.07509248
5 *97:5 0.003334148
6 *97:6 0.07509248
7 *97:7 0.04349047
8 *97:8 0.05812612

*RES
1 *97:3 *99:ZN 22.5
2 *97:4 *97:5 22.5
3 *97:6 *97:7 22.5
4 *97:8 *98:A1 22.5
5 *97:5 *97:3 0.1311312
6 *97:8 *97:7 1.378042
7 *97:4 *97:6 3.064665

*END

*D_NET *100 0.1775965

*CONN
*I *98:A2 I *L 1014.768 *C 12.825 10.87
*I *101:ZN O *L 0.0 *D AND4_X1 *C 13.015 9.89
*N *100:3 *C 12.825 10.87
*N *100:4 *C 13.015 9.89
*N *100:5 *C 12.825 9.89

*CAP
1 *98:A2 0.0
2 *101:ZN 0.0
3 *100:3 0.0658547
4 *100:4 0.02035904
5 *100:5 0.09138273

*RES
1 *100:3 *98:A2 22.5
2 *100:4 *101:ZN 22.5
3 *100:5 *100:3 2.89429
4 *100:5 *100:4 0.3595524

*END

*D_NET *102 0.2027484

*CONN
*I *98:A3 I *L 1022.167 *C 13.015 10.87
*I *103:ZN O *L 0.0 *D AND2_X1 *C 12.445 11.71
*N *102:3 *C 12.445 11.71
*N *102:4 *C 13.015 10.87
*N *102:5 *C 13.015 11.71

*CAP
1 *98:A3 0.0
2 *103:ZN 0.0
3 *102:3 0.04738333
4 *102:4 0.05011411
5 *102:5 0.1052509

*RES
1 *102:3 *103:ZN 22.5
2 *102:4 *98:A3 22.5
3 *102:3 *102:5 1.48813
4 *102:4 *102:5 2.395777

*END

*D_NET *104 0.1816615

*CONN
*I *98:A4 I *L 1046.591 *C 13.205 10.87
*I *105:ZN O *L 0.0 *D OR3_X1 *C 12.445 11.01
*N *104:3 *C 13.205 10.87
*N *104:4 *C 13.205 11.01
*N *104:5 *C 13.205 11.01
*N *104:6 *C 12.445 11.01
*N *104:7 *C 12.445 11.01

*CAP
1 *98:A4 0.0
2 *105:ZN 0.01275428
3 *104:3 0.02301976
4 *104:4 0.05636201
5 *104:5 0.02040918
6 *104:6 0.05636201
7 *104:7 0.01275428

*RES
1 *104:3 *98:A4 22.5
2 *104:4 *104:5 22.5
3 *104:6 *104:7 22.5
4 *104:7 *105:ZN 22.5
5 *104:3 *104:5 0.4563019
6 *104:6 *104:4 2.399382

*END

*D_NET *106 0.4094479

*CONN
*I *98:ZN O *L 0.0 *D OR4_X1 *C 13.575 11.29
*I *107:A I *L 1938.113 *C 15.675 10.87
*N *106:3 *C 13.575 11.29
*N *106:4 *C 13.575 11.15
*N *106:5 *C 13.575 11.15
*N *106:6 *C 15.675 11.15
*N *106:7 *C 15.675 11.15
*N *106:8 *C 15.675 10.87

*CAP
1 *98:ZN 0.0
2 *107:A 0.0
3 *106:3 0.005822139
4 *106:4 0.1588261
5 *106:5 0.003211559
6 *106:6 0.1588261
7 *106:7 0.04007569
8 *106:8 0.04268628

*RES
1 *106:3 *98:ZN 22.5
2 *106:4 *106:5 22.5
3 *106:6 *106:7 22.5
4 *106:8 *107:A 22.5
5 *106:5 *106:3 0.1307842
6 *106:8 *106:7 0.5040792
7 *106:4 *106:6 8.44678

*END

*D_NET *108 0.03762208

*CONN
*I *109:A1 I *L 1013.075 *C 12.472 13.687
*I *110:ZN O *L 0.0 *D AND2_X1 *C 12.055 13.58

*CAP
1 *109:A1 0.01881104
2 *110:ZN 0.01881104

*RES
1 *110:ZN *109:A1 0.7527499

*END

*D_NET *111 0.2239366

*CONN
*I *109:A2 I *L 1077.17 *C 12.67 13.67
*I *112:ZN O *L 0.0 *D AND2_X1 *C 11.115 13.53
*N *111:3 *C 12.67 13.67
*N *111:4 *C 12.67 13.53
*N *111:5 *C 12.67 13.53
*N *111:6 *C 11.115 13.53
*N *111:7 *C 11.115 13.53

*CAP
1 *109:A2 0.0
2 *112:ZN 0.01280826
3 *111:3 0.006045324
4 *111:4 0.09442001
5 *111:5 0.003434744
6 *111:6 0.09442001
7 *111:7 0.01280826

*RES
1 *111:3 *109:A2 22.5
2 *111:4 *111:5 22.5
3 *111:6 *111:7 22.5
4 *111:7 *112:ZN 22.5
5 *111:5 *111:3 0.1318904
6 *111:6 *111:4 4.239791

*END

*D_NET *113 0.6650057

*CONN
*I *109:ZN O *L 0.0 *D OR2_X1 *C 13.015 14.09
*I *114:A I *L 1938.113 *C 16.435 16.47
*N *113:3 *C 16.435 16.47
*N *113:4 *C 16.435 16.19
*N *113:5 *C 16.435 16.19
*N *113:6 *C 13.015 15.77
*N *113:7 *C 13.015 15.77
*N *113:8 *C 13.015 14.09
*N *113:9 *C 14.375 15.77
*N *113:10 *C 14.375 16.19

*CAP
1 *109:ZN 0.0
2 *114:A 0.0
3 *113:3 0.03192485
4 *113:4 0.09579693
5 *113:5 0.02931427
6 *113:6 0.06844155
7 *113:7 0.1071764
8 *113:8 0.1097869
9 *113:9 0.09760468
10 *113:10 0.1249601

*RES
1 *113:3 *114:A 22.5
2 *113:4 *113:5 22.5
3 *113:6 *113:7 22.5
4 *113:8 *109:ZN 22.5
5 *113:8 *113:7 4.190115
6 *113:5 *113:3 0.6826742
7 *113:6 *113:9 4.42136
8 *113:9 *113:10 1.278553
9 *113:10 *113:4 5.233061

*END

*D_NET *115 0.694144

*CONN
*I *105:A1 I *L 1003.731 *C 11.685 10.87
*I *116:ZN O *L 0.0 *D INV_X1 *C 10.925 5.69
*N *115:3 *C 11.685 10.87
*N *115:4 *C 11.685 11.01
*N *115:5 *C 11.685 11.01
*N *115:6 *C 11.015 11.01
*N *115:7 *C 11.015 11.01
*N *115:8 *C 11.015 5.69
*N *115:9 *C 11.015 5.69
*N *115:10 *C 10.925 5.69

*CAP
1 *105:A1 0.0
2 *116:ZN 0.01109843
3 *115:3 0.02089475
4 *115:4 0.05089239
5 *115:5 0.01828417
6 *115:6 0.2534522
7 *115:7 0.05081832
8 *115:8 0.2534522
9 *115:9 0.009478928
10 *115:10 0.02577243

*RES
1 *115:3 *105:A1 22.5
2 *115:4 *115:5 22.5
3 *115:6 *115:7 22.5
4 *115:8 *115:9 22.5
5 *115:9 *115:10 22.5
6 *115:10 *116:ZN 22.5
7 *115:3 *115:5 0.4536447
8 *115:7 *115:4 2.113451
9 *115:8 *115:6 9.724587

*END

*D_NET *117 0.1635537

*CONN
*I *105:A2 I *L 1033.271 *C 11.875 10.87
*I *118:ZN O *L 0.0 *D AND3_X1 *C 11.875 9.89
*N *117:3 *C 11.875 9.89
*N *117:4 *C 11.875 10.87

*CAP
1 *105:A2 0.0
2 *118:ZN 0.0
3 *117:3 0.08306912
4 *117:4 0.08048464

*RES
1 *117:3 *118:ZN 22.5
2 *117:4 *105:A2 22.5
3 *117:3 *117:4 3.794238

*END

*D_NET *119 0.6709907

*CONN
*I *105:A3 I *L 1059.898 *C 12.065 10.87
*I *120:ZN O *L 0.0 *D AND3_X1 *C 12.435 8.412
*N *119:3 *C 13.015 8.49
*N *119:4 *C 13.015 8.49
*N *119:5 *C 13.015 9.61
*N *119:6 *C 13.015 9.61
*N *119:7 *C 12.065 9.75
*N *119:8 *C 12.065 9.75
*N *119:9 *C 12.065 10.87
*N *119:10 *C 13.015 9.75

*CAP
1 *105:A3 0.0
2 *120:ZN 0.05291972
3 *119:3 0.09337747
4 *119:4 0.05033524
5 *119:5 0.01705944
6 *119:6 0.09076689
7 *119:7 0.07121433
8 *119:8 0.09702156
9 *119:9 0.09963213
10 *119:10 0.09866391

*RES
1 *119:3 *119:4 22.5
2 *119:5 *119:6 22.5
3 *119:7 *119:8 22.5
4 *119:9 *105:A3 22.5
5 *120:ZN *119:4 2.101581
6 *119:8 *119:9 2.737712
7 *119:3 *119:6 2.998854
8 *119:7 *119:10 3.523707
9 *119:5 *119:10 0.2147981

*END

*D_NET *121 0.2303155

*CONN
*I *122:A1 I *L 1003.731 *C 14.345 3.73
*I *123:ZN O *L 0.0 *D AND2_X1 *C 13.395 4.01
*N *121:3 *C 14.345 3.73
*N *121:4 *C 14.345 4.01
*N *121:5 *C 14.345 4.01
*N *121:6 *C 13.395 4.01
*N *121:7 *C 13.395 4.01

*CAP
1 *122:A1 0.0
2 *123:ZN 0.01171203
3 *121:3 0.0317491
4 *121:4 0.0730019
5 *121:5 0.02913852
6 *121:6 0.0730019
7 *121:7 0.01171203

*RES
1 *121:3 *122:A1 22.5
2 *121:4 *121:5 22.5
3 *121:6 *121:7 22.5