*SPEF "1481-1998"
*DESIGN "c1355"
*DATE "Wed Jul  2 15:13:30 2014"
*VENDOR "Synopsys, Inc."
*PROGRAM "icc_shell"
*VERSION "G-2012.06-ICC-SP5"
*DESIGN_FLOW "PIN_CAP NONE"
*DIVIDER /
*DELIMITER :
*BUS_DELIMITER [ ]
*T_UNIT 1 NS
*C_UNIT 1 FF
*R_UNIT 1 OHM
*L_UNIT 1 HENRY

*NAME_MAP
*1 G1
*2 VDD
*3 VSS
*4 G9
*5 G8
*6 G7
*7 G6
*8 G5
*9 G4
*10 G3
*11 G2
*12 G17
*13 G16
*14 G15
*15 G14
*16 G13
*17 G12
*18 G11
*19 G10
*20 G25
*21 G24
*22 G23
*23 G22
*24 G21
*25 G20
*26 G19
*27 G18
*28 G33
*29 G32
*30 G31
*31 G30
*32 G29
*33 G28
*34 G27
*35 G26
*36 G41
*37 G40
*38 G39
*39 G38
*40 G37
*41 G36
*42 G35
*43 G34
*44 G1331
*45 G1330
*46 G1329
*47 G1328
*48 G1327
*49 G1326
*50 G1325
*51 G1324
*52 G1339
*53 G1338
*54 G1337
*55 G1336
*56 G1335
*57 G1334
*58 G1333
*59 G1332
*60 G1347
*61 G1346
*62 G1345
*63 G1344
*64 G1343
*65 G1342
*66 G1341
*67 G1340
*68 G1355
*69 G1354
*70 G1353
*71 G1352
*72 G1351
*73 G1350
*74 G1349
*75 G1348
*76 G1323
*77 NOT_71
*78 NAND2_415
*79 G1322
*80 NOT_70
*81 NAND2_414
*82 G1321
*83 NOT_69
*84 NAND2_413
*85 G1320
*86 NOT_68
*87 NAND2_412
*88 G1319
*89 NOT_67
*90 NAND2_411
*91 G1318
*92 NOT_66
*93 NAND2_410
*94 G1317
*95 NOT_65
*96 NAND2_409
*97 G1316
*98 NOT_64
*99 NAND2_408
*100 G1315
*101 NOT_63
*102 NAND2_407
*103 G1314
*104 NOT_62
*105 NAND2_406
*106 G1313
*107 NOT_61
*108 NAND2_405
*109 G1312
*110 NOT_60
*111 NAND2_404
*112 G1311
*113 NOT_59
*114 NAND2_403
*115 G1310
*116 NOT_58
*117 NAND2_402
*118 G1309
*119 NOT_57
*120 NAND2_401
*121 G1308
*122 NOT_56
*123 NAND2_400
*124 G1307
*125 NOT_55
*126 NAND2_399
*127 G1306
*128 NOT_54
*129 NAND2_398
*130 G1305
*131 NOT_53
*132 NAND2_397
*133 G1304
*134 NOT_52
*135 NAND2_396
*136 G1303
*137 NOT_51
*138 NAND2_395
*139 G1302
*140 NOT_50
*141 NAND2_394
*142 G1301
*143 NOT_49
*144 NAND2_393
*145 G1300
*146 NOT_48
*147 NAND2_392
*148 G1299
*149 NOT_47
*150 NAND2_391
*151 G1298
*152 NOT_46
*153 NAND2_390
*154 G1297
*155 NOT_45
*156 NAND2_389
*157 G1296
*158 NOT_44
*159 NAND2_388
*160 G1295
*161 NOT_43
*162 NAND2_387
*163 G1294
*164 NOT_42
*165 NAND2_386
*166 G1293
*167 NOT_41
*168 NAND2_385
*169 G1292
*170 NOT_40
*171 NAND2_384
*172 G1290
*173 NAND2_382
*174 G1291
*175 NAND2_383
*176 G1288
*177 NAND2_380
*178 G1289
*179 NAND2_381
*180 G1286
*181 NAND2_378
*182 G1287
*183 NAND2_379
*184 G1284
*185 NAND2_376
*186 G1285
*187 NAND2_377
*188 G1282
*189 NAND2_374
*190 G1283
*191 NAND2_375
*192 G1280
*193 NAND2_372
*194 G1281
*195 NAND2_373
*196 G1278
*197 NAND2_370
*198 G1279
*199 NAND2_371
*200 G1276
*201 NAND2_368
*202 G1277
*203 NAND2_369
*204 G1274
*205 NAND2_366
*206 G1275
*207 NAND2_367
*208 G1272
*209 NAND2_364
*210 G1273
*211 NAND2_365
*212 G1270
*213 NAND2_362
*214 G1271
*215 NAND2_363
*216 G1268
*217 NAND2_360
*218 G1269
*219 NAND2_361
*220 G1266
*221 NAND2_358
*222 G1267
*223 NAND2_359
*224 G1264
*225 NAND2_356
*226 G1265
*227 NAND2_357
*228 G1262
*229 NAND2_354
*230 G1263
*231 NAND2_355
*232 G1260
*233 NAND2_352
*234 G1261
*235 NAND2_353
*236 G1258
*237 NAND2_350
*238 G1259
*239 NAND2_351
*240 G1256
*241 NAND2_348
*242 G1257
*243 NAND2_349
*244 G1254
*245 NAND2_346
*246 G1255
*247 NAND2_347
*248 G1252
*249 NAND2_344
*250 G1253
*251 NAND2_345
*252 G1250
*253 NAND2_342
*254 G1251
*255 NAND2_343
*256 G1248
*257 NAND2_340
*258 G1249
*259 NAND2_341
*260 G1246
*261 NAND2_338
*262 G1247
*263 NAND2_339
*264 G1244
*265 NAND2_336
*266 G1245
*267 NAND2_337
*268 G1242
*269 NAND2_334
*270 G1243
*271 NAND2_335
*272 G1240
*273 NAND2_332
*274 G1241
*275 NAND2_333
*276 G1238
*277 NAND2_330
*278 G1239
*279 NAND2_331
*280 G1236
*281 NAND2_328
*282 G1237
*283 NAND2_329
*284 G1234
*285 NAND2_326
*286 G1235
*287 NAND2_327
*288 G1232
*289 NAND2_324
*290 G1233
*291 NAND2_325
*292 G1230
*293 NAND2_322
*294 G1231
*295 NAND2_323
*296 G1228
*297 NAND2_320
*298 G1229
*299 NAND2_321
*300 G1129
*301 NAND2_319
*302 AND2_39
*303 G1225
*304 NAND2_95
*305 NAND2_63
*306 NAND2_31
*307 NAND2_15
*308 G1126
*309 NAND2_318
*310 AND2_38
*311 G1222
*312 NAND2_91
*313 NAND2_62
*314 NAND2_29
*315 G1123
*316 NAND2_317
*317 AND2_37
*318 G1219
*319 NAND2_87
*320 NAND2_61
*321 NAND2_27
*322 NAND2_14
*323 G1120
*324 NAND2_316
*325 AND2_36
*326 G1216
*327 NAND2_83
*328 NAND2_60
*329 NAND2_25
*330 G1117
*331 NAND2_315
*332 AND2_35
*333 G1213
*334 NAND2_94
*335 NAND2_59
*336 NAND2_13
*337 G1114
*338 NAND2_314
*339 AND2_34
*340 G1210
*341 NAND2_90
*342 NAND2_58
*343 G1111
*344 NAND2_313
*345 AND2_33
*346 G1207
*347 NAND2_86
*348 NAND2_57
*349 NAND2_12
*350 G1108
*351 NAND2_312
*352 AND2_32
*353 G1204
*354 NAND2_82
*355 NAND2_56
*356 G1105
*357 NAND2_311
*358 AND2_31
*359 G1201
*360 NAND2_93
*361 NAND2_55
*362 NAND2_30
*363 NAND2_11
*364 G1102
*365 NAND2_310
*366 AND2_30
*367 G1198
*368 NAND2_89
*369 NAND2_54
*370 NAND2_28
*371 G1099
*372 NAND2_309
*373 AND2_29
*374 G1195
*375 NAND2_85
*376 NAND2_53
*377 NAND2_26
*378 NAND2_10
*379 G1096
*380 NAND2_308
*381 AND2_28
*382 G1192
*383 NAND2_81
*384 NAND2_52
*385 NAND2_24
*386 G1093
*387 NAND2_307
*388 AND2_27
*389 G1189
*390 NAND2_92
*391 NAND2_51
*392 NAND2_9
*393 G1090
*394 NAND2_306
*395 AND2_26
*396 G1186
*397 NAND2_88
*398 NAND2_50
*399 G1087
*400 NAND2_305
*401 AND2_25
*402 G1183
*403 NAND2_84
*404 NAND2_49
*405 NAND2_8
*406 G1084
*407 NAND2_304
*408 AND2_24
*409 G1180
*410 NAND2_80
*411 NAND2_48
*412 G1081
*413 NAND2_303
*414 AND2_23
*415 G1177
*416 NAND2_79
*417 NAND2_47
*418 NAND2_23
*419 NAND2_7
*420 G1078
*421 NAND2_302
*422 AND2_22
*423 G1174
*424 NAND2_75
*425 NAND2_46
*426 NAND2_21
*427 G1075
*428 NAND2_301
*429 AND2_21
*430 G1171
*431 NAND2_71
*432 NAND2_45
*433 NAND2_19
*434 NAND2_6
*435 G1072
*436 NAND2_300
*437 AND2_20
*438 G1168
*439 NAND2_67
*440 NAND2_44
*441 NAND2_17
*442 G1069
*443 NAND2_299
*444 AND2_19
*445 G1165
*446 NAND2_78
*447 NAND2_43
*448 NAND2_5
*449 G1066
*450 NAND2_298
*451 AND2_18
*452 G1162
*453 NAND2_74
*454 NAND2_42
*455 G1063
*456 NAND2_297
*457 AND2_17
*458 G1159
*459 NAND2_70
*460 NAND2_41
*461 NAND2_4
*462 G1060
*463 NAND2_296
*464 AND2_16
*465 G1156
*466 NAND2_66
*467 NAND2_40
*468 G1057
*469 NAND2_295
*470 AND2_15
*471 G1153
*472 NAND2_77
*473 NAND2_39
*474 NAND2_22
*475 NAND2_3
*476 G1054
*477 NAND2_294
*478 AND2_14
*479 G1150
*480 NAND2_73
*481 NAND2_38
*482 NAND2_20
*483 G1051
*484 NAND2_293
*485 AND2_13
*486 G1147
*487 NAND2_69
*488 NAND2_37
*489 NAND2_18
*490 NAND2_2
*491 G1048
*492 NAND2_292
*493 AND2_12
*494 G1144
*495 NAND2_65
*496 NAND2_36
*497 NAND2_16
*498 G1045
*499 NAND2_291
*500 AND2_11
*501 G1141
*502 NAND2_76
*503 NAND2_35
*504 NAND2_1
*505 G1042
*506 NAND2_290
*507 AND2_10
*508 G1138
*509 NAND2_72
*510 NAND2_34
*511 G1039
*512 NAND2_289
*513 AND2_9
*514 G1135
*515 NAND2_68
*516 NAND2_33
*517 NAND2_0
*518 G1036
*519 NAND2_288
*520 AND2_8
*521 G1132
*522 NAND2_64
*523 NAND2_32
*524 G899
*525 NOT_28
*526 NOT_25
*527 NOT_17
*528 NOT_13
*529 NAND2_285
*530 AND5_3_A
*531 AND5_1_A
*532 AND4_4
*533 NOT_31
*534 G1031
*535 AND5_7
*536 G912
*537 NOT_27
*538 NOT_22
*539 NOT_19
*540 NOT_15
*541 NAND2_286
*542 AND5_2_A
*543 AND5_0_A
*544 AND4_5
*545 NOT_30
*546 G886
*547 NOT_24
*548 NOT_21
*549 NOT_14
*550 NOT_12
*551 NAND2_284
*552 AND4_6
*553 NOT_29
*554 G925
*555 NOT_23
*556 NOT_20
*557 NOT_18
*558 NOT_16
*559 NAND2_287
*560 AND4_7
*561 NOT_26
*562 G1026
*563 AND5_6
*564 G1021
*565 AND5_5
*566 G1016
*567 AND5_4
*568 G873
*569 NOT_33
*570 NOT_11
*571 NOT_8
*572 NOT_5
*573 NAND2_283
*574 AND5_7_A
*575 AND5_5_A
*576 AND4_0
*577 NOT_37
*578 G1011
*579 AND5_3
*580 G860
*581 NOT_35
*582 NOT_10
*583 NOT_7
*584 NOT_2
*585 NAND2_282
*586 AND5_6_A
*587 AND5_4_A
*588 AND4_1
*589 NOT_39
*590 G847
*591 NOT_32
*592 NOT_9
*593 NOT_4
*594 NOT_1
*595 NAND2_281
*596 AND4_2
*597 NOT_34
*598 G834
*599 NOT_36
*600 NOT_6
*601 NOT_3
*602 NOT_0
*603 NAND2_280
*604 AND4_3
*605 NOT_38
*606 G1006
*607 AND5_2
*608 G1001
*609 AND5_1
*610 G996
*611 AND5_0
*612 extra7
*613 G991
*614 OR4_1
*615 G976
*616 G977
*617 extra6
*618 G974
*619 G975
*620 extra5
*621 G972
*622 G973
*623 extra4
*624 G970
*625 G971
*626 extra3
*627 G986
*628 OR4_0
*629 G956
*630 G957
*631 extra2
*632 G954
*633 G955
*634 extra1
*635 G952
*636 G953
*637 extra0
*638 G950
*639 G951
*640 G982
*641 G983
*642 G984
*643 G985
*644 G978
*645 G979
*646 G980
*647 G981
*648 G967
*649 G968
*650 G969
*651 G964
*652 G965
*653 G966
*654 G961
*655 G962
*656 G963
*657 G958
*658 G959
*659 G960
*660 G947
*661 G948
*662 G949
*663 G944
*664 G945
*665 G946
*666 G941
*667 G942
*668 G943
*669 G938
*670 G939
*671 G940
*672 G826
*673 NAND2_272
*674 G827
*675 NAND2_273
*676 G830
*677 NAND2_276
*678 G831
*679 NAND2_277
*680 G832
*681 NAND2_278
*682 G833
*683 NAND2_279
*684 G828
*685 NAND2_274
*686 G829
*687 NAND2_275
*688 G824
*689 NAND2_270
*690 G825
*691 NAND2_271
*692 G822
*693 NAND2_268
*694 G823
*695 NAND2_269
*696 G820
*697 NAND2_266
*698 G821
*699 NAND2_267
*700 G818
*701 NAND2_264
*702 G819
*703 NAND2_265
*704 G791
*705 NAND2_263
*706 NAND2_255
*707 G815
*708 G663
*709 NAND2_191
*710 G788
*711 NAND2_262
*712 NAND2_254
*713 G812
*714 G660
*715 NAND2_190
*716 G785
*717 NAND2_261
*718 NAND2_253
*719 G809
*720 G657
*721 NAND2_189
*722 G782
*723 NAND2_260
*724 NAND2_252
*725 G806
*726 G654
*727 NAND2_188
*728 G779
*729 NAND2_259
*730 NAND2_251
*731 G803
*732 G651
*733 NAND2_187
*734 G776
*735 NAND2_258
*736 NAND2_250
*737 G800
*738 G648
*739 NAND2_186
*740 G773
*741 NAND2_257
*742 NAND2_249
*743 G797
*744 G645
*745 NAND2_185
*746 G770
*747 NAND2_256
*748 NAND2_248
*749 G794
*750 G642
*751 NAND2_184
*752 G768
*753 NAND2_246
*754 G769
*755 NAND2_247
*756 G766
*757 NAND2_244
*758 G767
*759 NAND2_245
*760 G764
*761 NAND2_242
*762 G765
*763 NAND2_243
*764 G762
*765 NAND2_240
*766 G763
*767 NAND2_241
*768 G760
*769 NAND2_238
*770 G761
*771 NAND2_239
*772 G758
*773 NAND2_236
*774 G759
*775 NAND2_237
*776 G756
*777 NAND2_234
*778 G757
*779 NAND2_235
*780 G754
*781 NAND2_232
*782 G755
*783 NAND2_233
*784 G715
*785 NAND2_231
*786 NAND2_219
*787 G751
*788 G263
*789 AND2_7
*790 G712
*791 NAND2_230
*792 NAND2_218
*793 G748
*794 G260
*795 AND2_6
*796 G709
*797 NAND2_229
*798 NAND2_217
*799 G745
*800 G257
*801 AND2_5
*802 G706
*803 NAND2_228
*804 NAND2_216
*805 G742
*806 G254
*807 AND2_4
*808 G727
*809 NAND2_227
*810 NAND2_223
*811 G739
*812 G251
*813 AND2_3
*814 G724
*815 NAND2_226
*816 NAND2_222
*817 G736
*818 G248
*819 AND2_2
*820 G721
*821 NAND2_225
*822 NAND2_221
*823 G733
*824 G245
*825 AND2_1
*826 G718
*827 NAND2_224
*828 NAND2_220
*829 G730
*830 G242
*831 AND2_0
*832 G704
*833 NAND2_214
*834 G705
*835 NAND2_215
*836 G702
*837 NAND2_212
*838 G703
*839 NAND2_213
*840 G700
*841 NAND2_210
*842 G701
*843 NAND2_211
*844 G698
*845 NAND2_208
*846 G699
*847 NAND2_209
*848 G696
*849 NAND2_206
*850 G697
*851 NAND2_207
*852 G694
*853 NAND2_204
*854 G695
*855 NAND2_205
*856 G692
*857 NAND2_202
*858 G693
*859 NAND2_203
*860 G690
*861 NAND2_200
*862 G691
*863 NAND2_201
*864 G637
*865 NAND2_199
*866 NAND2_197
*867 NAND2_183
*868 G687
*869 G627
*870 NAND2_196
*871 NAND2_181
*872 G632
*873 NAND2_198
*874 NAND2_182
*875 G684
*876 G622
*877 NAND2_180
*878 G681
*879 G678
*880 G617
*881 NAND2_195
*882 NAND2_193
*883 NAND2_179
*884 G675
*885 G607
*886 NAND2_192
*887 NAND2_177
*888 G612
*889 NAND2_194
*890 NAND2_178
*891 G672
*892 G602
*893 NAND2_176
*894 G669
*895 G666
*896 G600
*897 NAND2_174
*898 G601
*899 NAND2_175
*900 G598
*901 NAND2_172
*902 G599
*903 NAND2_173
*904 G596
*905 NAND2_170
*906 G597
*907 NAND2_171
*908 G594
*909 NAND2_168
*910 G595
*911 NAND2_169
*912 G592
*913 NAND2_166
*914 G593
*915 NAND2_167
*916 G590
*917 NAND2_164
*918 G591
*919 NAND2_165
*920 G588
*921 NAND2_162
*922 G589
*923 NAND2_163
*924 G586
*925 NAND2_160
*926 G587
*927 NAND2_161
*928 G584
*929 NAND2_158
*930 G585
*931 NAND2_159
*932 G582
*933 NAND2_156
*934 G583
*935 NAND2_157
*936 G580
*937 NAND2_154
*938 G581
*939 NAND2_155
*940 G578
*941 NAND2_152
*942 G579
*943 NAND2_153
*944 G576
*945 NAND2_150
*946 G577
*947 NAND2_151
*948 G574
*949 NAND2_148
*950 G575
*951 NAND2_149
*952 G572
*953 NAND2_146
*954 G573
*955 NAND2_147
*956 G570
*957 NAND2_144
*958 G571
*959 NAND2_145
*960 G519
*961 NAND2_143
*962 NAND2_127
*963 G567
*964 G516
*965 NAND2_126
*966 G513
*967 NAND2_142
*968 NAND2_125
*969 G564
*970 G510
*971 NAND2_124
*972 G507
*973 NAND2_141
*974 NAND2_123
*975 G561
*976 G504
*977 NAND2_122
*978 G501
*979 NAND2_140
*980 NAND2_121
*981 G558
*982 G498
*983 NAND2_120
*984 G495
*985 NAND2_139
*986 NAND2_119
*987 G555
*988 G492
*989 NAND2_118
*990 G489
*991 NAND2_138
*992 NAND2_117
*993 G552
*994 G486
*995 NAND2_116
*996 G483
*997 NAND2_137
*998 NAND2_115
*999 G549
*1000 G480
*1001 NAND2_114
*1002 G477
*1003 NAND2_136
*1004 NAND2_113
*1005 G546
*1006 G474
*1007 NAND2_112
*1008 G471
*1009 NAND2_135
*1010 NAND2_111
*1011 G543
*1012 G468
*1013 NAND2_110
*1014 G465
*1015 NAND2_134
*1016 NAND2_109
*1017 G540
*1018 G462
*1019 NAND2_108
*1020 G459
*1021 NAND2_133
*1022 NAND2_107
*1023 G537
*1024 G456
*1025 NAND2_106
*1026 G453
*1027 NAND2_132
*1028 NAND2_105
*1029 G534
*1030 G450
*1031 NAND2_104
*1032 G447
*1033 NAND2_131
*1034 NAND2_103
*1035 G531
*1036 G444
*1037 NAND2_102
*1038 G441
*1039 NAND2_130
*1040 NAND2_101
*1041 G528
*1042 G438
*1043 NAND2_100
*1044 G435
*1045 NAND2_129
*1046 NAND2_99
*1047 G525
*1048 G432
*1049 NAND2_98
*1050 G429
*1051 NAND2_128
*1052 NAND2_97
*1053 G522
*1054 G426
*1055 NAND2_96
*1056 G424
*1057 G425
*1058 G422
*1059 G423
*1060 G420
*1061 G421
*1062 G418
*1063 G419
*1064 G416
*1065 G417
*1066 G414
*1067 G415
*1068 G412
*1069 G413
*1070 G410
*1071 G411
*1072 G408
*1073 G409
*1074 G406
*1075 G407
*1076 G404
*1077 G405
*1078 G402
*1079 G403
*1080 G400
*1081 G401
*1082 G398
*1083 G399
*1084 G396
*1085 G397
*1086 G394
*1087 G395
*1088 G392
*1089 G393
*1090 G390
*1091 G391
*1092 G388
*1093 G389
*1094 G386
*1095 G387
*1096 G384
*1097 G385
*1098 G382
*1099 G383
*1100 G380
*1101 G381
*1102 G378
*1103 G379
*1104 G376
*1105 G377
*1106 G374
*1107 G375
*1108 G372
*1109 G373
*1110 G370
*1111 G371
*1112 G368
*1113 G369
*1114 G366
*1115 G367
*1116 G364
*1117 G365
*1118 G362
*1119 G363
*1120 G359
*1121 G356
*1122 G353
*1123 G350
*1124 G347
*1125 G344
*1126 G341
*1127 G338
*1128 G335
*1129 G332
*1130 G329
*1131 G326
*1132 G323
*1133 G320
*1134 G317
*1135 G314
*1136 G311
*1137 G308
*1138 G305
*1139 G302
*1140 G299
*1141 G296
*1142 G293
*1143 G290
*1144 G287
*1145 G284
*1146 G281
*1147 G278
*1148 G275
*1149 G272
*1150 G269
*1151 G266

*PORTS
*1 I *L 0.0 *S 0.0 0.0
*2 I *L 0.0 *S 0.0 0.0
*3 I *L 0.0 *S 0.0 0.0
*4 I *L 0.0 *S 0.0 0.0
*5 I *L 0.0 *S 0.0 0.0
*6 I *L 0.0 *S 0.0 0.0
*7 I *L 0.0 *S 0.0 0.0
*8 I *L 0.0 *S 0.0 0.0
*9 I *L 0.0 *S 0.0 0.0
*10 I *L 0.0 *S 0.0 0.0
*11 I *L 0.0 *S 0.0 0.0
*12 I *L 0.0 *S 0.0 0.0
*13 I *L 0.0 *S 0.0 0.0
*14 I *L 0.0 *S 0.0 0.0
*15 I *L 0.0 *S 0.0 0.0
*16 I *L 0.0 *S 0.0 0.0
*17 I *L 0.0 *S 0.0 0.0
*18 I *L 0.0 *S 0.0 0.0
*19 I *L 0.0 *S 0.0 0.0
*20 I *L 0.0 *S 0.0 0.0
*21 I *L 0.0 *S 0.0 0.0
*22 I *L 0.0 *S 0.0 0.0
*23 I *L 0.0 *S 0.0 0.0
*24 I *L 0.0 *S 0.0 0.0
*25 I *L 0.0 *S 0.0 0.0
*26 I *L 0.0 *S 0.0 0.0
*27 I *L 0.0 *S 0.0 0.0
*28 I *L 0.0 *S 0.0 0.0
*29 I *L 0.0 *S 0.0 0.0
*30 I *L 0.0 *S 0.0 0.0
*31 I *L 0.0 *S 0.0 0.0
*32 I *L 0.0 *S 0.0 0.0
*33 I *L 0.0 *S 0.0 0.0
*34 I *L 0.0 *S 0.0 0.0
*35 I *L 0.0 *S 0.0 0.0
*36 I *L 0.0 *S 0.0 0.0
*37 I *L 0.0 *S 0.0 0.0
*38 I *L 0.0 *S 0.0 0.0
*39 I *L 0.0 *S 0.0 0.0
*40 I *L 0.0 *S 0.0 0.0
*41 I *L 0.0 *S 0.0 0.0
*42 I *L 0.0 *S 0.0 0.0
*43 I *L 0.0 *S 0.0 0.0
*44 O *L 0.0 *S 0.0 0.0
*45 O *L 0.0 *S 0.0 0.0
*46 O *L 0.0 *S 0.0 0.0
*47 O *L 0.0 *S 0.0 0.0
*48 O *L 0.0 *S 0.0 0.0
*49 O *L 0.0 *S 0.0 0.0
*50 O *L 0.0 *S 0.0 0.0
*51 O *L 0.0 *S 0.0 0.0
*52 O *L 0.0 *S 0.0 0.0
*53 O *L 0.0 *S 0.0 0.0
*54 O *L 0.0 *S 0.0 0.0
*55 O *L 0.0 *S 0.0 0.0
*56 O *L 0.0 *S 0.0 0.0
*57 O *L 0.0 *S 0.0 0.0
*58 O *L 0.0 *S 0.0 0.0
*59 O *L 0.0 *S 0.0 0.0
*60 O *L 0.0 *S 0.0 0.0
*61 O *L 0.0 *S 0.0 0.0
*62 O *L 0.0 *S 0.0 0.0
*63 O *L 0.0 *S 0.0 0.0
*64 O *L 0.0 *S 0.0 0.0
*65 O *L 0.0 *S 0.0 0.0
*66 O *L 0.0 *S 0.0 0.0
*67 O *L 0.0 *S 0.0 0.0
*68 O *L 0.0 *S 0.0 0.0
*69 O *L 0.0 *S 0.0 0.0
*70 O *L 0.0 *S 0.0 0.0
*71 O *L 0.0 *S 0.0 0.0
*72 O *L 0.0 *S 0.0 0.0
*73 O *L 0.0 *S 0.0 0.0
*74 O *L 0.0 *S 0.0 0.0
*75 O *L 0.0 *S 0.0 0.0

*D_NET *76 2.093049

*CONN
*I *77:A I *L 1938.113 *C 0.095 3.73
*I *78:ZN O *L 0.0 *D NAND2_X1 *C 9.215 9.61
*N *76:3 *C 9.215 9.61
*N *76:4 *C 9.215 9.19
*N *76:5 *C 9.215 9.19
*N *76:6 *C 1.775 9.19
*N *76:7 *C 1.775 9.19
*N *76:8 *C 1.775 3.73
*N *76:9 *C 1.775 3.73
*N *76:10 *C 0.095 3.73
*N *76:11 *C 0.095 3.73

*CAP
1 *77:A 0.009785166
2 *78:ZN 0.0
3 *76:3 0.04024193
4 *76:4 0.5228409
5 *76:5 0.04022889
6 *76:6 0.3551334
7 *76:7 0.5201692
8 *76:8 0.3551334
9 *76:9 0.1198284
10 *76:10 0.1199025
11 *76:11 0.009785166

*RES
1 *76:3 *78:ZN 22.5
2 *76:4 *76:5 22.5
3 *76:6 *76:7 22.5
4 *76:8 *76:9 22.5
5 *76:10 *76:11 22.5
6 *76:11 *77:A 22.5
7 *76:5 *76:3 1.630709
8 *76:10 *76:9 5.235876
9 *76:7 *76:4 27.39077
10 *76:8 *76:6 10.0598

*END

*D_NET *68 0.3476669

*CONN
*I *77:ZN O *L 0.0 *D INV_X1 *C 0.285 3.45
*P *68 O *C 0.07 0.79
*N *68:3 *C 0.07 0.79
*N *68:4 *C 0.07 3.45
*N *68:5 *C 0.07 3.45
*N *68:6 *C 0.285 3.45
*N *68:7 *C 0.285 3.45

*CAP
1 *77:ZN 0.01843709
2 *68 0.0
3 *68:3 0.127999
4 *68:4 0.127999
5 *68:5 0.02606153
6 *68:6 0.02873313
7 *68:7 0.01843709

*RES
1 *68:3 *68 22.5
2 *68:4 *68:5 22.5
3 *68:6 *68:7 22.5
4 *68:7 *77:ZN 22.5
5 *68:5 *68:6 1.279228
6 *68:3 *68:4 4.973954

*END

*D_NET *79 2.063659

*CONN
*I *80:A I *L 1938.113 *C 3.135 3.73
*I *81:ZN O *L 0.0 *D NAND2_X1 *C 12.825 10.31
*N *79:3 *C 3.135 3.73
*N *79:4 *C 3.135 4.01
*N *79:5 *C 3.135 4.01
*N *79:6 *C 12.635 4.01
*N *79:7 *C 12.635 4.01
*N *79:8 *C 12.825 10.31
*N *79:9 *C 12.635 9.61
*N *79:10 *C 12.825 9.61

*CAP
1 *80:A 0.0
2 *81:ZN 0.0
3 *79:3 0.03800015
4 *79:4 0.5841119
5 *79:5 0.03538956
6 *79:6 0.5841119
7 *79:7 0.3560698
8 *79:8 0.03867947
9 *79:9 0.3736487
10 *79:10 0.05364788

*RES
1 *79:3 *80:A 22.5
2 *79:4 *79:5 22.5
3 *79:6 *79:7 22.5
4 *79:8 *81:ZN 22.5
5 *79:3 *79:5 0.5258247
6 *79:7 *79:9 16.46249
7 *79:9 *79:10 0.5692913
8 *79:10 *79:8 2.171323
9 *79:4 *79:6 30.14217

*END

*D_NET *69 0.5987088

*CONN
*I *80:ZN O *L 0.0 *D INV_X1 *C 3.325 3.31
*P *69 O *C 0.035 2.05
*N *69:3 *C 1.775 2.05
*N *69:4 *C 1.775 2.05
*N *69:5 *C 1.775 3.31
*N *69:6 *C 1.775 3.31
*N *69:7 *C 3.325 3.31
*N *69:8 *C 3.325 3.31

*CAP
1 *80:ZN 0.01031479
2 *69 0.1064812
3 *69:3 0.07955447
4 *69:4 0.101212
5 *69:5 0.07955447
6 *69:6 0.1056015
7 *69:7 0.1056756
8 *69:8 0.01031479

*RES
1 *69:3 *69:4 22.5
2 *69:5 *69:6 22.5
3 *69:7 *69:8 22.5
4 *69:8 *80:ZN 22.5
5 *69 *69:4 4.916364
6 *69:6 *69:7 5.304923
7 *69:3 *69:5 2.500242

*END

*D_NET *82 0.9667403

*CONN
*I *83:A I *L 1938.113 *C 3.325 8.07
*I *84:ZN O *L 0.0 *D NAND2_X1 *C 9.025 10.31
*N *82:3 *C 9.025 10.31
*N *82:4 *C 9.025 10.31
*N *82:5 *C 3.325 10.17
*N *82:6 *C 3.325 10.17
*N *82:7 *C 3.325 8.07
*N *82:8 *C 3.515 10.17
*N *82:9 *C 3.515 10.31

*CAP
1 *83:A 0.0
2 *84:ZN 0.0
3 *82:3 0.009334087
4 *82:4 0.3136311
5 *82:5 0.01226509
6 *82:6 0.145232
7 *82:7 0.1478426
8 *82:8 0.02579928
9 *82:9 0.3126361

*RES
1 *82:3 *84:ZN 22.5
2 *82:4 *82:3 22.5
3 *82:5 *82:6 22.5
4 *82:7 *83:A 22.5
5 *82:7 *82:6 5.988099
6 *82:5 *82:8 0.6543938
7 *82:8 *82:9 0.436936
8 *82:9 *82:4 14.41594

*END

*D_NET *70 0.84434

*CONN
*I *83:ZN O *L 0.0 *D INV_X1 *C 3.515 7.51
*P *70 O *C 0.035 3.31
*N *70:3 *C 3.515 7.51
*N *70:4 *C 3.515 7.51
*N *70:5 *C 0.655 7.51
*N *70:6 *C 0.655 7.51
*N *70:7 *C 0.375 3.31
*N *70:8 *C 0.375 3.31
*N *70:9 *C 0.375 6.81
*N *70:10 *C 0.655 6.81

*CAP
1 *83:ZN 0.0
2 *70 0.02591244
3 *70:3 0.009350964
4 *70:4 0.1754705
5 *70:5 0.0237792
6 *70:6 0.1608503
7 *70:7 0.183464
8 *70:8 0.0206433
9 *70:9 0.202277
10 *70:10 0.04259222

*RES
1 *70:3 *83:ZN 22.5
2 *70:4 *70:3 22.5
3 *70:5 *70:6 22.5
4 *70:7 *70:8 22.5
5 *70 *70:8 0.8716998
6 *70:6 *70:4 6.652967
7 *70:7 *70:9 6.507559
8 *70:9 *70:10 0.5176676
9 *70:10 *70:5 1.255117

*END

*D_NET *85 1.662759

*CONN
*I *86:A I *L 1938.113 *C 3.325 6.53
*I *87:ZN O *L 0.0 *D NAND2_X1 *C 11.305 10.31
*N *85:3 *C 3.325 6.53
*N *85:4 *C 3.325 6.53
*N *85:5 *C 10.735 6.53
*N *85:6 *C 10.735 6.53
*N *85:7 *C 10.735 10.31
*N *85:8 *C 10.735 10.31
*N *85:9 *C 11.305 10.31
*N *85:10 *C 11.305 10.31

*CAP
1 *86:A 0.0
2 *87:ZN 0.01134807
3 *85:3 0.008580843
4 *85:4 0.521259
5 *85:5 0.2478283
6 *85:6 0.507409
7 *85:7 0.2478283
8 *85:8 0.05354189
9 *85:9 0.05361596
10 *85:10 0.01134807

*RES
1 *85:3 *86:A 22.5
2 *85:4 *85:3 22.5
3 *85:5 *85:6 22.5
4 *85:7 *85:8 22.5
5 *85:9 *85:10 22.5
6 *85:10 *87:ZN 22.5
7 *85:4 *85:6 25.0273
8 *85:8 *85:9 2.23394
9 *85:5 *85:7 7.0033

*END

*D_NET *71 0.6704595

*CONN
*I *86:ZN O *L 0.0 *D INV_X1 *C 3.515 6.11
*P *71 O *C 0.035 4.57
*N *71:3 *C 3.515 4.57
*N *71:4 *C 3.515 4.57
*N *71:5 *C 3.515 6.11

*CAP
1 *86:ZN 0.0
2 *71 0.2251448
3 *71:3 0.2199498
4 *71:4 0.1113772
5 *71:5 0.1139878

*RES
1 *71:3 *71:4 22.5
2 *71:5 *86:ZN 22.5
3 *71:4 *71:5 4.392554
4 *71 *71:3 10.76095

*END

*D_NET *88 2.414409

*CONN
*I *89:A I *L 1938.113 *C 0.095 10.87
*I *90:ZN O *L 0.0 *D NAND2_X1 *C 14.535 12.41
*N *88:3 *C 0.095 10.87
*N *88:4 *C 0.095 12.41
*N *88:5 *C 0.095 12.41
*N *88:6 *C 14.535 12.41
*N *88:7 *C 14.535 12.41

*CAP
1 *89:A 0.0
2 *90:ZN 0.01320804
3 *88:3 0.1120679
4 *88:4 1.083234
5 *88:5 0.1120549
6 *88:6 1.080636
7 *88:7 0.01320804

*RES
1 *88:3 *89:A 22.5
2 *88:4 *88:5 22.5
3 *88:6 *88:7 22.5
4 *88:7 *90:ZN 22.5
5 *88:3 *88:5 3.79447
6 *88:4 *88:6 50.55139

*END

*D_NET *72 1.016954

*CONN
*I *89:ZN O *L 0.0 *D INV_X1 *C 0.285 10.31
*P *72 O *C 0.035 5.83
*N *72:3 *C 2.055 5.83
*N *72:4 *C 2.055 5.83
*N *72:5 *C 2.055 10.31
*N *72:6 *C 2.055 10.31
*N *72:7 *C 0.285 10.31
*N *72:8 *C 0.285 10.31

*CAP
1 *89:ZN 0.01130533
2 *72 0.1216253
3 *72:3 0.2541802
4 *72:4 0.1163562
5 *72:5 0.2541802
6 *72:6 0.1239637
7 *72:7 0.1240378
8 *72:8 0.01130533

*RES
1 *72:3 *72:4 22.5
2 *72:5 *72:6 22.5
3 *72:7 *72:8 22.5
4 *72:8 *89:ZN 22.5
5 *72 *72:4 4.897036
6 *72:7 *72:6 4.684944
7 *72:3 *72:5 8.273911

*END

*D_NET *91 1.725711

*CONN
*I *92:A I *L 1938.113 *C 1.235 13.67
*I *93:ZN O *L 0.0 *D NAND2_X1 *C 13.965 13.39
*N *91:3 *C 13.965 13.39
*N *91:4 *C 13.775 13.39
*N *91:5 *C 13.775 13.39
*N *91:6 *C 1.235 13.39
*N *91:7 *C 1.235 13.39
*N *91:8 *C 1.235 13.67

*CAP
1 *92:A 0.0
2 *93:ZN 0.0
3 *91:3 0.0271925
4 *91:4 0.7966075
5 *91:5 0.02458192
6 *91:6 0.7992051
7 *91:7 0.0390554
8 *91:8 0.03906844

*RES
1 *91:3 *93:ZN 22.5
2 *91:4 *91:5 22.5
3 *91:6 *91:7 22.5
4 *91:8 *92:A 22.5
5 *91:7 *91:8 0.9413314
6 *91:5 *91:3 0.5302069
7 *91:6 *91:4 35.52003

*END

*D_NET *73 0.8959825

*CONN
*I *92:ZN O *L 0.0 *D INV_X1 *C 1.425 13.11
*P *73 O *C 0.095 7.09
*N *73:3 *C 1.425 13.11
*N *73:4 *C 1.425 13.11
*N *73:5 *C 0.655 13.11
*N *73:6 *C 0.655 13.11
*N *73:7 *C 0.095 7.09
*N *73:8 *C 0.095 8.07
*N *73:9 *C 0.655 8.07

*CAP
1 *92:ZN 0.0
2 *73 0.00795301
3 *73:3 0.008607395
4 *73:4 0.07432086
5 *73:5 0.2778429
6 *73:6 0.06044431
7 *73:7 0.0666626
8 *73:8 0.08787441
9 *73:9 0.3122769

*RES
1 *73:3 *92:ZN 22.5
2 *73:4 *73:3 22.5
3 *73:5 *73:6 22.5
4 *73:7 *73 22.5
5 *73:6 *73:4 2.044252
6 *73:7 *73:8 1.999005
7 *73:8 *73:9 1.035453
8 *73:9 *73:5 9.060162

*END

*D_NET *94 1.473883

*CONN
*I *95:A I *L 1938.113 *C 0.855 13.67
*I *96:ZN O *L 0.0 *D NAND2_X1 *C 9.595 15.21
*N *94:3 *C 0.855 13.67
*N *94:4 *C 1.045 15.21
*N *94:5 *C 1.045 15.21
*N *94:6 *C 9.595 15.21
*N *94:7 *C 9.595 15.21
*N *94:8 *C 1.045 13.67

*CAP
1 *95:A 0.0
2 *96:ZN 0.01155616
3 *94:3 0.02083992
4 *94:4 0.5963181
5 *94:5 0.106935
6 *94:6 0.5937205
7 *94:7 0.01155616
8 *94:8 0.1329569

*RES
1 *94:3 *95:A 22.5
2 *94:4 *94:5 22.5
3 *94:6 *94:7 22.5
4 *94:7 *96:ZN 22.5
5 *94:3 *94:8 0.5410706
6 *94:8 *94:5 5.510438
7 *94:4 *94:6 26.84864

*END

*D_NET *74 0.8035557

*CONN
*I *95:ZN O *L 0.0 *D INV_X1 *C 1.045 13.25
*P *74 O *C 0.035 8.35
*N *74:3 *C 0.375 8.35
*N *74:4 *C 0.375 8.35
*N *74:5 *C 0.375 13.25
*N *74:6 *C 0.375 13.25
*N *74:7 *C 1.045 13.25
*N *74:8 *C 1.045 13.25

*CAP
1 *95:ZN 0.01175657
2 *74 0.02667562
3 *74:3 0.3055283
4 *74:4 0.02140648
5 *74:5 0.3055283
6 *74:6 0.06041485
7 *74:7 0.06048892
8 *74:8 0.01175657

*RES
1 *74:3 *74:4 22.5
2 *74:5 *74:6 22.5
3 *74:7 *74:8 22.5
4 *74:8 *95:ZN 22.5
5 *74 *74:4 0.898787
6 *74:6 *74:7 2.953545
7 *74:3 *74:5 9.038468

*END

*D_NET *97 2.525546

*CONN
*I *98:A I *L 1938.113 *C 0.285 12.13
*I *99:ZN O *L 0.0 *D NAND2_X1 *C 13.775 15.21
*N *97:3 *C 0.285 12.13
*N *97:4 *C 0.285 12.55
*N *97:5 *C 0.285 12.55
*N *97:6 *C 11.575 12.55
*N *97:7 *C 11.575 12.55
*N *97:8 *C 11.575 15.21
*N *97:9 *C 11.575 15.21
*N *97:10 *C 13.775 15.21
*N *97:11 *C 13.775 15.21

*CAP
1 *98:A 0.0
2 *99:ZN 0.01162808
3 *97:3 0.05327104
4 *97:4 0.849216
5 *97:5 0.05066046
6 *97:6 0.1853001
7 *97:7 0.8491419
8 *97:8 0.1853001
9 *97:9 0.1646631
10 *97:10 0.1647372
11 *97:11 0.01162808

*RES
1 *97:3 *98:A 22.5
2 *97:4 *97:5 22.5
3 *97:6 *97:7 22.5
4 *97:8 *97:9 22.5
5 *97:10 *97:11 22.5
6 *97:11 *99:ZN 22.5
7 *97:3 *97:5 0.8599211
8 *97:4 *97:7 43.73944
9 *97:9 *97:10 6.057003
10 *97:6 *97:8 5.005238

*END

*D_NET *75 0.3963821

*CONN
*I *98:ZN O *L 0.0 *D INV_X1 *C 0.475 11.71
*P *75 O *C 0.07 9.61
*N *75:3 *C 0.07 9.61
*N *75:4 *C 0.07 10.45
*N *75:5 *C 0.07 10.45
*N *75:6 *C 0.475 10.45
*N *75:7 *C 0.475 10.45
*N *75:8 *C 0.475 11.71

*CAP
1 *98:ZN 0.0
2 *75 0.0
3 *75:3 0.05663019
4 *75:4 0.05663019
5 *75:5 0.04426075
6 *75:6 0.04693236
7 *75:7 0.09595778
8 *75:8 0.09597082

*RES
1 *75:3 *75 22.5
2 *75:4 *75:5 22.5
3 *75:6 *75:7 22.5
4 *75:8 *98:ZN 22.5
5 *75:7 *75:8 4.345188
6 *75:5 *75:6 2.19478
7 *75:3 *75:4 1.750169

*END

*D_NET *100 1.223962

*CONN
*I *101:A I *L 1938.113 *C 1.615 13.67
*I *102:ZN O *L 0.0 *D NAND2_X1 *C 9.025 15.91
*N *100:3 *C 1.615 13.67
*N *100:4 *C 1.805 15.91
*N *100:5 *C 1.805 15.91
*N *100:6 *C 9.025 15.91
*N *100:7 *C 9.025 15.91
*N *100:8 *C 1.805 13.67

*CAP
1 *101:A 0.0
2 *102:ZN 0.01139316
3 *100:3 0.01930511
4 *100:4 0.4601514
5 *100:5 0.1172414
6 *100:6 0.4601514
7 *100:7 0.01139316
8 *100:8 0.1443261

*RES
1 *100:3 *101:A 22.5
2 *100:4 *100:5 22.5
3 *100:6 *100:7 22.5
4 *100:7 *102:ZN 22.5
5 *100:3 *100:8 0.8599702
6 *100:8 *100:5 6.00709
7 *100:4 *100:6 20.09647

*END

*D_NET *60 0.606819

*CONN
*I *101:ZN O *L 0.0 *D INV_X1 *C 1.805 13.11
*P *60 O *C 0.035 10.87
*N *60:3 *C 2.185 11.15
*N *60:4 *C 2.185 11.15
*N *60:5 *C 1.805 13.11
*N *60:6 *C 2.185 13.11
*N *60:7 *C 0.095 11.15

*CAP
1 *101:ZN 0.0
2 *60 0.01767871
3 *60:3 0.1359991
4 *60:4 0.1067711
5 *60:5 0.0364733
6 *60:6 0.1510239
7 *60:7 0.1588729

*RES
1 *60:3 *60:4 22.5
2 *60:5 *101:ZN 22.5
3 *60:5 *60:6 1.049968
4 *60:4 *60:6 5.72425
5 *60 *60:7 0.6988979
6 *60:7 *60:3 6.436287

*END

*D_NET *103 1.18196

*CONN
*I *104:A I *L 1938.113 *C 0.872 14.912
*I *105:ZN O *L 0.0 *D NAND2_X1 *C 7.315 18.01
*N *103:3 *C 7.315 18.01
*N *103:4 *C 7.315 17.87
*N *103:5 *C 7.315 17.87
*N *103:6 *C 1.045 17.87
*N *103:7 *C 1.045 17.87
*N *103:8 *C 0.855 15.07
*N *103:9 *C 0.855 15.07
*N *103:10 *C 0.855 16.19
*N *103:11 *C 1.045 16.19

*CAP
1 *104:A 0.00705079
2 *105:ZN 0.0
3 *103:3 0.005779265
4 *103:4 0.4173108
5 *103:5 0.005766221
6 *103:6 0.4173108
7 *103:7 0.0746584
8 *103:8 0.07385845
9 *103:9 0.004466298
10 *103:10 0.08747323
11 *103:11 0.08828621

*RES
1 *103:3 *105:ZN 22.5
2 *103:4 *103:5 22.5
3 *103:6 *103:7 22.5
4 *104:A *103:9 0.1489895
5 *103:8 *103:9 22.5
6 *103:8 *103:10 2.837659
7 *103:10 *103:11 0.5692913
8 *103:11 *103:7 6.49197
9 *103:5 *103:3 0.1311312
10 *103:6 *103:4 18.49259

*END

*D_NET *61 0.6057907

*CONN
*I *104:ZN O *L 0.0 *D INV_X1 *C 1.045 15.49
*P *61 O *C 0.095 12.13
*N *61:3 *C 1.045 15.49
*N *61:4 *C 1.045 15.49
*N *61:5 *C 0.095 15.35
*N *61:6 *C 0.095 15.35
*N *61:7 *C 0.095 12.13
*N *61:8 *C 1.045 15.35

*CAP
1 *104:ZN 0.0
2 *61 0.009394912
3 *61:3 0.009553686
4 *61:4 0.02751405
5 *61:5 0.1939992
6 *61:6 0.06671809
7 *61:7 0.2086632
8 *61:8 0.0899476

*RES
1 *61:3 *104:ZN 22.5
2 *61:4 *61:3 22.5
3 *61:5 *61:6 22.5
4 *61:7 *61 22.5
5 *61:6 *61:8 3.375852
6 *61:8 *61:4 0.2059742
7 *61:7 *61:5 5.996497

*END

*D_NET *106 1.382151

*CONN
*I *107:A I *L 1938.113 *C 0.095 13.67
*I *108:ZN O *L 0.0 *D NAND2_X1 *C 4.275 20.11
*N *106:3 *C 4.275 20.11
*N *106:4 *C 4.275 19.97
*N *106:5 *C 4.275 19.97
*N *106:6 *C 3.455 19.97
*N *106:7 *C 3.455 19.97
*N *106:8 *C 3.455 19.41
*N *106:9 *C 3.455 19.41
*N *106:10 *C 0.07 19.41
*N *106:11 *C 0.07 19.41
*N *106:12 *C 0.07 15.49
*N *106:13 *C 0.07 15.49
*N *106:14 *C 0.375 15.49
*N *106:15 *C 0.375 15.49
*N *106:16 *C 0.375 14.51
*N *106:17 *C 0.375 14.51
*N *106:18 *C 0.095 14.51
*N *106:19 *C 0.095 14.51
*N *106:20 *C 0.095 13.67

*CAP
1 *107:A 0.0
2 *108:ZN 0.0
3 *106:3 0.00680726
4 *106:4 0.05649389
5 *106:5 0.00419668
6 *106:6 0.0545367
7 *106:7 0.05641982
8 *106:8 0.2196328
9 *106:9 0.05301423
10 *106:10 0.14933
11 *106:11 0.2195798
12 *106:12 0.14933
13 *106:13 0.03875958
14 *106:14 0.03881264
15 *106:15 0.07566369
16 *106:16 0.07718617
17 *106:17 0.03045913
18 *106:18 0.03053321
19 *106:19 0.05939242
20 *106:20 0.06200301

*RES
1 *106:3 *108:ZN 22.5
2 *106:4 *106:5 22.5
3 *106:6 *106:7 22.5
4 *106:8 *106:9 5.625
5 *106:10 *106:11 5.625
6 *106:12 *106:13 5.625
7 *106:14 *106:15 5.625
8 *106:16 *106:17 22.5
9 *106:18 *106:19 22.5
10 *106:20 *107:A 22.5
11 *106:20 *106:19 1.941877
12 *106:5 *106:3 0.1326496
13 *106:18 *106:17 1.20821
14 *106:7 *106:4 2.213176
15 *106:16 *106:15 2.014226
16 *106:9 *106:6 1.259514
17 *106:13 *106:14 0.8166223
18 *106:11 *106:8 6.218241
19 *106:12 *106:10 7.456715

*END

*D_NET *62 0.08372637

*CONN
*I *107:ZN O *L 0.0 *D INV_X1 *C 0.285 13.39
*P *62 O *C 0.035 13.39
*N *62:3 *C 0.285 13.39
*N *62:4 *C 0.285 13.39

*CAP
1 *107:ZN 0.02104934
2 *62 0.02211262
3 *62:3 0.01951508
4 *62:4 0.02104934

*RES
1 *62:3 *62:4 22.5
2 *62:4 *107:ZN 22.5
3 *62 *62:3 0.8102754

*END

*D_NET *109 1.38959

*CONN
*I *110:A I *L 1938.113 *C 0.855 16.47
*I *111:ZN O *L 0.0 *D NAND2_X1 *C 5.605 21.65
*N *109:3 *C 0.855 16.47
*N *109:4 *C 0.855 16.47
*N *109:5 *C 0.655 16.47
*N *109:6 *C 0.655 16.47
*N *109:7 *C 0.655 21.65
*N *109:8 *C 0.655 21.65
*N *109:9 *C 5.605 21.65
*N *109:10 *C 5.605 21.65