*SPEF "1481-1998"
*DESIGN "c499"
*DATE "Wed Jul  2 15:16:23 2014"
*VENDOR "Synopsys, Inc."
*PROGRAM "icc_shell"
*VERSION "G-2012.06-ICC-SP5"
*DESIGN_FLOW "PIN_CAP NONE"
*DIVIDER /
*DELIMITER :
*BUS_DELIMITER [ ]
*T_UNIT 1 NS
*C_UNIT 1 FF
*R_UNIT 1 OHM
*L_UNIT 1 HENRY

*NAME_MAP
*1 N1
*2 VDD
*3 VSS
*4 N33
*5 N29
*6 N25
*7 N21
*8 N17
*9 N13
*10 N9
*11 N5
*12 N65
*13 N61
*14 N57
*15 N53
*16 N49
*17 N45
*18 N41
*19 N37
*20 N97
*21 N93
*22 N89
*23 N85
*24 N81
*25 N77
*26 N73
*27 N69
*28 N129
*29 N125
*30 N121
*31 N117
*32 N113
*33 N109
*34 N105
*35 N101
*36 N137
*37 N136
*38 N135
*39 N134
*40 N133
*41 N132
*42 N131
*43 N130
*44 N731
*45 N730
*46 N729
*47 N728
*48 N727
*49 N726
*50 N725
*51 N724
*52 N739
*53 N738
*54 N737
*55 N736
*56 N735
*57 N734
*58 N733
*59 N732
*60 N747
*61 N746
*62 N745
*63 N744
*64 N743
*65 N742
*66 N741
*67 N740
*68 N755
*69 N754
*70 N753
*71 N752
*72 N751
*73 N750
*74 N749
*75 N748
*76 XOR2_202
*77 XOR2_40
*78 XOR2_16
*79 N723
*80 AND2_170
*81 XOR2_201
*82 XOR2_38
*83 N722
*84 AND2_169
*85 XOR2_200
*86 XOR2_36
*87 XOR2_15
*88 N721
*89 AND2_168
*90 XOR2_199
*91 XOR2_34
*92 N720
*93 AND2_167
*94 XOR2_198
*95 XOR2_14
*96 N719
*97 AND2_166
*98 XOR2_197
*99 N718
*100 AND2_165
*101 XOR2_196
*102 XOR2_13
*103 N717
*104 AND2_164
*105 XOR2_195
*106 N716
*107 AND2_163
*108 XOR2_194
*109 XOR2_39
*110 XOR2_12
*111 N715
*112 AND2_162
*113 XOR2_193
*114 XOR2_37
*115 N714
*116 AND2_161
*117 XOR2_192
*118 XOR2_35
*119 XOR2_11
*120 N713
*121 AND2_160
*122 XOR2_191
*123 XOR2_33
*124 N712
*125 AND2_159
*126 XOR2_190
*127 XOR2_10
*128 N711
*129 AND2_158
*130 XOR2_189
*131 N710
*132 AND2_157
*133 XOR2_188
*134 XOR2_9
*135 N709
*136 AND2_156
*137 XOR2_187
*138 N708
*139 AND2_155
*140 XOR2_186
*141 XOR2_32
*142 XOR2_8
*143 N707
*144 AND2_154
*145 XOR2_185
*146 XOR2_30
*147 N706
*148 AND2_153
*149 XOR2_184
*150 XOR2_28
*151 XOR2_7
*152 N705
*153 AND2_152
*154 XOR2_183
*155 XOR2_26
*156 N704
*157 AND2_151
*158 XOR2_182
*159 XOR2_6
*160 N703
*161 AND2_150
*162 XOR2_181
*163 N702
*164 AND2_149
*165 XOR2_180
*166 XOR2_5
*167 N701
*168 AND2_148
*169 XOR2_179
*170 N700
*171 AND2_147
*172 XOR2_178
*173 XOR2_31
*174 XOR2_4
*175 N699
*176 AND2_146
*177 XOR2_177
*178 XOR2_29
*179 N698
*180 AND2_145
*181 XOR2_176
*182 XOR2_27
*183 XOR2_3
*184 N697
*185 AND2_144
*186 XOR2_175
*187 XOR2_25
*188 N696
*189 AND2_143
*190 XOR2_174
*191 XOR2_2
*192 N695
*193 AND2_142
*194 XOR2_173
*195 N694
*196 AND2_141
*197 XOR2_172
*198 XOR2_1
*199 N693
*200 AND2_140
*201 XOR2_171
*202 N692
*203 AND2_139
*204 N445
*205 NOT1_109
*206 NOT1_106
*207 NOT1_98
*208 NOT1_94
*209 XOR2_80
*210 AND5_134_A
*211 AND5_132_A
*212 AND4_125
*213 NOT1_112
*214 N655
*215 AND5_138
*216 N432
*217 NOT1_108
*218 NOT1_103
*219 NOT1_100
*220 NOT1_96
*221 XOR2_79
*222 AND5_133_A
*223 AND5_131_A
*224 AND4_126
*225 NOT1_111
*226 N419
*227 NOT1_105
*228 NOT1_102
*229 NOT1_95
*230 NOT1_93
*231 XOR2_78
*232 AND4_127
*233 NOT1_110
*234 N406
*235 NOT1_104
*236 NOT1_101
*237 NOT1_99
*238 NOT1_97
*239 XOR2_77
*240 AND4_128
*241 NOT1_107
*242 N650
*243 AND5_137
*244 N645
*245 AND5_136
*246 N640
*247 AND5_135
*248 N393
*249 NOT1_114
*250 NOT1_92
*251 NOT1_89
*252 NOT1_86
*253 XOR2_76
*254 AND5_138_A
*255 AND5_136_A
*256 AND4_121
*257 NOT1_118
*258 N635
*259 AND5_134
*260 N380
*261 NOT1_116
*262 NOT1_91
*263 NOT1_88
*264 NOT1_83
*265 XOR2_75
*266 AND5_137_A
*267 AND5_135_A
*268 AND4_122
*269 NOT1_120
*270 N367
*271 NOT1_113
*272 NOT1_90
*273 NOT1_85
*274 NOT1_82
*275 XOR2_74
*276 AND4_123
*277 NOT1_115
*278 N354
*279 NOT1_117
*280 NOT1_87
*281 NOT1_84
*282 NOT1_81
*283 XOR2_73
*284 AND4_124
*285 NOT1_119
*286 N630
*287 AND5_133
*288 N625
*289 AND5_132
*290 N620
*291 AND5_131
*292 extra7
*293 N607
*294 OR4_130
*295 N592
*296 N593
*297 extra6
*298 N590
*299 N591
*300 extra5
*301 N588
*302 N589
*303 extra4
*304 N586
*305 N587
*306 extra3
*307 N602
*308 OR4_129
*309 N572
*310 N573
*311 extra2
*312 N570
*313 N571
*314 extra1
*315 N568
*316 N569
*317 extra0
*318 N566
*319 N567
*320 N598
*321 N599
*322 N600
*323 N601
*324 N594
*325 N595
*326 N596
*327 N597
*328 N583
*329 N584
*330 N585
*331 N580
*332 N581
*333 N582
*334 N577
*335 N578
*336 N579
*337 N574
*338 N575
*339 N576
*340 N563
*341 N564
*342 N565
*343 N560
*344 N561
*345 N562
*346 N557
*347 N558
*348 N559
*349 N554
*350 N555
*351 N556
*352 N321
*353 XOR2_56
*354 N353
*355 XOR2_72
*356 N320
*357 XOR2_55
*358 N352
*359 XOR2_71
*360 N319
*361 XOR2_54
*362 N351
*363 XOR2_70
*364 N318
*365 XOR2_53
*366 N350
*367 XOR2_69
*368 N317
*369 XOR2_52
*370 N349
*371 XOR2_68
*372 N316
*373 XOR2_51
*374 N348
*375 XOR2_67
*376 N315
*377 XOR2_50
*378 N347
*379 XOR2_66
*380 N314
*381 XOR2_49
*382 N346
*383 XOR2_65
*384 N273
*385 AND2_24
*386 N341
*387 XOR2_60
*388 N272
*389 AND2_23
*390 N340
*391 XOR2_59
*392 N271
*393 AND2_22
*394 N339
*395 XOR2_58
*396 N270
*397 AND2_21
*398 N338
*399 XOR2_57
*400 N269
*401 AND2_20
*402 N345
*403 XOR2_64
*404 N268
*405 AND2_19
*406 N344
*407 XOR2_63
*408 N267
*409 AND2_18
*410 N343
*411 XOR2_62
*412 N266
*413 AND2_17
*414 N342
*415 XOR2_61
*416 N305
*417 XOR2_46
*418 N311
*419 XOR2_48
*420 N302
*421 XOR2_45
*422 N308
*423 XOR2_47
*424 N293
*425 XOR2_42
*426 N299
*427 XOR2_44
*428 N290
*429 XOR2_41
*430 N296
*431 XOR2_43
*432 N288
*433 N289
*434 N286
*435 N287
*436 N284
*437 N285
*438 N282
*439 N283
*440 N280
*441 N281
*442 N278
*443 N279
*444 N276
*445 N277
*446 N274
*447 N275
*448 N264
*449 N265
*450 N262
*451 N263
*452 N260
*453 N261
*454 N258
*455 N259
*456 N256
*457 N257
*458 N254
*459 N255
*460 N252
*461 N253
*462 N250
*463 N251

*PORTS
*1 I *L 0.0 *S 0.0 0.0
*2 I *L 0.0 *S 0.0 0.0
*3 I *L 0.0 *S 0.0 0.0
*4 I *L 0.0 *S 0.0 0.0
*5 I *L 0.0 *S 0.0 0.0
*6 I *L 0.0 *S 0.0 0.0
*7 I *L 0.0 *S 0.0 0.0
*8 I *L 0.0 *S 0.0 0.0
*9 I *L 0.0 *S 0.0 0.0
*10 I *L 0.0 *S 0.0 0.0
*11 I *L 0.0 *S 0.0 0.0
*12 I *L 0.0 *S 0.0 0.0
*13 I *L 0.0 *S 0.0 0.0
*14 I *L 0.0 *S 0.0 0.0
*15 I *L 0.0 *S 0.0 0.0
*16 I *L 0.0 *S 0.0 0.0
*17 I *L 0.0 *S 0.0 0.0
*18 I *L 0.0 *S 0.0 0.0
*19 I *L 0.0 *S 0.0 0.0
*20 I *L 0.0 *S 0.0 0.0
*21 I *L 0.0 *S 0.0 0.0
*22 I *L 0.0 *S 0.0 0.0
*23 I *L 0.0 *S 0.0 0.0
*24 I *L 0.0 *S 0.0 0.0
*25 I *L 0.0 *S 0.0 0.0
*26 I *L 0.0 *S 0.0 0.0
*27 I *L 0.0 *S 0.0 0.0
*28 I *L 0.0 *S 0.0 0.0
*29 I *L 0.0 *S 0.0 0.0
*30 I *L 0.0 *S 0.0 0.0
*31 I *L 0.0 *S 0.0 0.0
*32 I *L 0.0 *S 0.0 0.0
*33 I *L 0.0 *S 0.0 0.0
*34 I *L 0.0 *S 0.0 0.0
*35 I *L 0.0 *S 0.0 0.0
*36 I *L 0.0 *S 0.0 0.0
*37 I *L 0.0 *S 0.0 0.0
*38 I *L 0.0 *S 0.0 0.0
*39 I *L 0.0 *S 0.0 0.0
*40 I *L 0.0 *S 0.0 0.0
*41 I *L 0.0 *S 0.0 0.0
*42 I *L 0.0 *S 0.0 0.0
*43 I *L 0.0 *S 0.0 0.0
*44 O *L 0.0 *S 0.0 0.0
*45 O *L 0.0 *S 0.0 0.0
*46 O *L 0.0 *S 0.0 0.0
*47 O *L 0.0 *S 0.0 0.0
*48 O *L 0.0 *S 0.0 0.0
*49 O *L 0.0 *S 0.0 0.0
*50 O *L 0.0 *S 0.0 0.0
*51 O *L 0.0 *S 0.0 0.0
*52 O *L 0.0 *S 0.0 0.0
*53 O *L 0.0 *S 0.0 0.0
*54 O *L 0.0 *S 0.0 0.0
*55 O *L 0.0 *S 0.0 0.0
*56 O *L 0.0 *S 0.0 0.0
*57 O *L 0.0 *S 0.0 0.0
*58 O *L 0.0 *S 0.0 0.0
*59 O *L 0.0 *S 0.0 0.0
*60 O *L 0.0 *S 0.0 0.0
*61 O *L 0.0 *S 0.0 0.0
*62 O *L 0.0 *S 0.0 0.0
*63 O *L 0.0 *S 0.0 0.0
*64 O *L 0.0 *S 0.0 0.0
*65 O *L 0.0 *S 0.0 0.0
*66 O *L 0.0 *S 0.0 0.0
*67 O *L 0.0 *S 0.0 0.0
*68 O *L 0.0 *S 0.0 0.0
*69 O *L 0.0 *S 0.0 0.0
*70 O *L 0.0 *S 0.0 0.0
*71 O *L 0.0 *S 0.0 0.0
*72 O *L 0.0 *S 0.0 0.0
*73 O *L 0.0 *S 0.0 0.0
*74 O *L 0.0 *S 0.0 0.0
*75 O *L 0.0 *S 0.0 0.0

*D_NET *29 2.777852

*CONN
*I *76:A I *L 2615.462 *C 0.855 3.87
*I *77:B I *L 2892.923 *C 15.105 6.81
*I *78:B I *L 2892.923 *C 13.965 4.01
*P *29 I *C 18.205 4.57
*N *29:5 *C 14.915 4.57
*N *29:6 *C 14.915 4.57
*N *29:7 *C 13.965 4.01
*N *29:8 *C 13.965 4.01
*N *29:9 *C 14.915 4.01
*N *29:10 *C 14.915 4.01
*N *29:11 *C 15.105 6.81
*N *29:12 *C 13.395 4.01
*N *29:13 *C 13.395 4.01
*N *29:14 *C 0.855 4.01
*N *29:15 *C 0.855 4.01
*N *29:16 *C 0.855 3.87
*N *29:17 *C 14.915 6.39
*N *29:18 *C 15.105 6.39

*CAP
1 *76:A 0.0
2 *77:B 0.0
3 *78:B 0.01252617
4 *29 0.2027095
5 *29:5 0.1975144
6 *29:6 0.1434693
7 *29:7 0.00959989
8 *29:8 0.0917863
9 *29:9 0.07958888
10 *29:10 0.03868397
11 *29:11 0.02542201
12 *29:12 0.02348011
13 *29:13 0.8997235
14 *29:14 0.886159
15 *29:15 0.003918297
16 *29:16 0.006528876
17 *29:17 0.1180591
18 *29:18 0.03868276

*RES
1 *29:5 *29:6 22.5
2 *29:7 *78:B 22.5
3 *29:8 *29:7 22.5
4 *29:9 *29:10 22.5
5 *29:11 *77:B 22.5
6 *29:12 *78:B 22.5
7 *29:13 *29:12 22.5
8 *29:14 *29:15 22.5
9 *29:16 *76:A 22.5
10 *29:15 *29:16 0.1318904
11 *29:10 *29:6 1.495138
12 *29:6 *29:17 4.337078
13 *29:17 *29:18 0.5128052
14 *29:18 *29:11 1.136152
15 *29:14 *29:13 49.22078
16 *29:8 *29:9 4.187214
17 *29:5 *29 8.796342

*END

*D_NET *79 0.4160736

*CONN
*I *76:B I *L 2892.923 *C 1.045 4.01
*I *80:ZN O *L 0.0 *D AND2_X1 *C 1.76 6.11
*N *79:3 *C 1.045 4.01
*N *79:4 *C 1.235 6.25
*N *79:5 *C 1.235 6.25
*N *79:6 *C 1.76 6.25
*N *79:7 *C 1.76 6.25
*N *79:8 *C 1.76 6.11
*N *79:9 *C 1.045 5.13
*N *79:10 *C 1.235 5.13

*CAP
1 *76:B 0.0
2 *80:ZN 0.0
3 *79:3 0.07186505
4 *79:4 0.0491383
5 *79:5 0.06614981
6 *79:6 0.0491383
7 *79:7 0.00453111
8 *79:8 0.007141691
9 *79:9 0.085607
10 *79:10 0.08250232

*RES
1 *79:3 *76:B 22.5
2 *79:4 *79:5 22.5
3 *79:6 *79:7 22.5
4 *79:8 *80:ZN 22.5
5 *79:3 *79:9 4.134029
6 *79:9 *79:10 0.5410706
7 *79:10 *79:5 2.664652
8 *79:7 *79:8 0.1326496
9 *79:4 *79:6 2.581005

*END

*D_NET *68 0.475032

*CONN
*I *76:Z O *L 0.0 *D XOR2_X1 *C 0.855 3.31
*P *68 O *C 0.035 0.79
*N *68:3 *C 0.665 0.79
*N *68:4 *C 0.665 0.79
*N *68:5 *C 0.855 3.31
*N *68:6 *C 0.665 3.31

*CAP
1 *76:Z 0.0
2 *68 0.04640391
3 *68:3 0.04120884
4 *68:4 0.1687002
5 *68:5 0.02111961
6 *68:6 0.1975994

*RES
1 *68:3 *68:4 22.5
2 *68:5 *76:Z 22.5
3 *68:4 *68:6 5.805711
4 *68:6 *68:5 0.3238769
5 *68 *68:3 2.272992

*END

*D_NET *30 2.38985

*CONN
*I *81:A I *L 2615.462 *C 3.895 3.87
*I *82:B I *L 2892.923 *C 14.942 8.107
*I *78:A I *L 2615.462 *C 13.775 3.87
*P *30 I *C 18.205 5.55
*N *30:5 *C 13.775 3.87
*N *30:6 *C 14.345 7.65
*N *30:7 *C 14.345 7.65
*N *30:8 *C 14.345 5.55
*N *30:9 *C 14.345 5.55
*N *30:10 *C 13.585 5.55
*N *30:11 *C 13.585 5.55
*N *30:12 *C 3.895 3.87
*N *30:13 *C 3.895 4.29
*N *30:14 *C 3.895 4.29
*N *30:15 *C 13.585 4.29
*N *30:16 *C 13.585 4.29
*N *30:17 *C 13.775 4.29

*CAP
1 *81:A 0.0
2 *82:B 0.02654461
3 *78:A 0.0
4 *30 0.2307521
5 *30:5 0.02853608
6 *30:6 0.1637437
7 *30:7 0.02396012
8 *30:8 0.2823112
9 *30:9 0.1611332
10 *30:10 0.05155905
11 *30:11 0.07961785
12 *30:12 0.03917566
13 *30:13 0.5647647
14 *30:14 0.03916261
15 *30:15 0.5621671
16 *30:16 0.09245954
17 *30:17 0.04396225

*RES
1 *30:5 *78:A 22.5
2 *30:6 *30:7 22.5
3 *30:8 *30:9 22.5
4 *30:10 *30:11 22.5
5 *30:12 *81:A 22.5
6 *30:13 *30:14 22.5
7 *30:15 *30:16 22.5
8 *30:7 *82:B 0.4231305
9 *30:12 *30:14 1.334831
10 *30:16 *30:17 0.5294366
11 *30:16 *30:11 2.759372
12 *30:5 *30:17 1.152816
13 *30:9 *30:6 5.671755
14 *30:13 *30:15 27.23615
15 *30:10 *30:8 2.671823
16 *30:8 *30 11.16739

*END

*D_NET *83 0.7393419

*CONN
*I *81:B I *L 2892.923 *C 4.085 4.01
*I *84:ZN O *L 0.0 *D AND2_X1 *C 4.085 8.07
*N *83:3 *C 4.085 8.07
*N *83:4 *C 4.085 8.07
*N *83:5 *C 4.015 8.07
*N *83:6 *C 4.295 4.99
*N *83:7 *C 4.295 4.99
*N *83:8 *C 4.085 4.99
*N *83:9 *C 4.085 4.99
*N *83:10 *C 4.085 4.01
*N *83:11 *C 4.295 7.93

*CAP
1 *81:B 0.0
2 *84:ZN 0.0
3 *83:3 0.007907095
4 *83:4 0.02351055
5 *83:5 0.04269424
6 *83:6 0.208295
7 *83:7 0.02622293
8 *83:8 0.026297
9 *83:9 0.07797721
10 *83:10 0.08058779
11 *83:11 0.24585

*RES
1 *83:3 *84:ZN 22.5
2 *83:4 *83:3 22.5
3 *83:5 *83:4 22.5
4 *83:6 *83:7 22.5
5 *83:8 *83:9 22.5
6 *83:10 *81:B 22.5
7 *83:10 *83:9 2.320381
8 *83:8 *83:7 1.301258
9 *83:5 *83:11 0.7734348
10 *83:6 *83:11 5.289958

*END

*D_NET *69 0.7312186

*CONN
*I *81:Z O *L 0.0 *D XOR2_X1 *C 3.895 3.31
*P *69 O *C 0.035 1.77
*N *69:3 *C 1.775 2.05
*N *69:4 *C 1.775 2.05
*N *69:5 *C 1.775 3.31
*N *69:6 *C 1.775 3.31
*N *69:7 *C 3.895 3.31
*N *69:8 *C 3.895 3.31
*N *69:9 *C 0.035 2.05

*CAP
1 *81:Z 0.01207048
2 *69 0.01515059
3 *69:3 0.07880361
4 *69:4 0.09914003
5 *69:5 0.07880361
6 *69:6 0.157773
7 *69:7 0.1578471
8 *69:8 0.01207048
9 *69:9 0.1195598

*RES
1 *69:3 *69:4 22.5
2 *69:5 *69:6 22.5
3 *69:7 *69:8 22.5
4 *69:8 *81:Z 22.5
5 *69 *69:9 0.6685599
6 *69:9 *69:4 4.848896
7 *69:6 *69:7 8.785035
8 *69:3 *69:5 2.499093

*END

*D_NET *31 2.380479

*CONN
*I *85:A I *L 2615.462 *C 3.135 5.13
*I *86:B I *L 2892.923 *C 17.955 9.47
*I *87:B I *L 2892.923 *C 14.725 4.99
*P *31 I *C 18.205 6.53
*N *31:5 *C 17.955 6.53
*N *31:6 *C 17.955 6.53
*N *31:7 *C 14.725 4.99
*N *31:8 *C 14.725 4.85
*N *31:9 *C 14.725 4.85
*N *31:10 *C 17.955 4.85
*N *31:11 *C 17.955 4.85
*N *31:12 *C 3.135 4.99
*N *31:13 *C 3.135 4.99
*N *31:14 *C 3.135 5.13
*N *31:15 *C 17.955 9.47
*N *31:16 *C 3.895 4.99
*N *31:17 *C 3.895 4.85

*CAP
1 *85:A 0.0
2 *86:B 0.0
3 *87:B 0.0
4 *31 0.01335872
5 *31:5 0.00816365
6 *31:6 0.228926
7 *31:7 0.00682842
8 *31:8 0.87428
9 *31:9 0.004217839
10 *31:10 0.1920333
11 *31:11 0.07875144
12 *31:12 0.05134973
13 *31:13 0.009276525
14 *31:14 0.009302612
15 *31:15 0.1475901
16 *31:16 0.06534941
17 *31:17 0.6910515

*RES
1 *31:5 *31:6 22.5
2 *31:7 *87:B 22.5
3 *31:8 *31:9 22.5
4 *31:10 *31:11 22.5
5 *31:12 *31:13 22.5
6 *31:14 *85:A 22.5
7 *31:15 *86:B 22.5
8 *31:13 *31:14 0.2622623
9 *31:9 *31:7 0.1318904
10 *31:11 *31:6 3.965495
11 *31:6 *31:15 7.905085
12 *31:12 *31:16 3.215965
13 *31:17 *31:16 0.4244101
14 *31:17 *31:8 32.84375
15 *31:8 *31:10 8.738491
16 *31:5 *31 0.6862678

*END

*D_NET *88 0.1205208

*CONN
*I *85:B I *L 2892.923 *C 3.325 5.27
*I *89:ZN O *L 0.0 *D AND2_X1 *C 3.325 6.11
*N *88:3 *C 3.325 6.11
*N *88:4 *C 3.325 5.27

*CAP
1 *85:B 0.0
2 *89:ZN 0.0
3 *88:3 0.06155264
4 *88:4 0.05896815

*RES
1 *88:3 *89:ZN 22.5
2 *88:4 *85:B 22.5
3 *88:4 *88:3 2.321677

*END

*D_NET *70 0.6951352

*CONN
*I *85:Z O *L 0.0 *D XOR2_X1 *C 3.325 4.85
*P *70 O *C 0.035 2.75
*N *70:3 *C 0.375 2.75
*N *70:4 *C 0.375 2.75
*N *70:5 *C 0.375 4.71
*N *70:6 *C 0.375 4.71
*N *70:7 *C 3.325 4.71
*N *70:8 *C 3.325 4.71
*N *70:9 *C 3.325 4.85

*CAP
1 *85:Z 0.0
2 *70 0.02737927
3 *70:3 0.1439597
4 *70:4 0.02211012
5 *70:5 0.1439597
6 *70:6 0.1735054
7 *70:7 0.1735794
8 *70:8 0.004015533
9 *70:9 0.006626113

*RES
1 *70:3 *70:4 22.5
2 *70:5 *70:6 22.5
3 *70:7 *70:8 22.5
4 *70:9 *85:Z 22.5
5 *70:8 *70:9 0.1311312
6 *70 *70:4 1.073246
7 *70:6 *70:7 7.661628
8 *70:3 *70:5 3.773711

*END

*D_NET *32 2.947487

*CONN
*I *90:A I *L 2615.462 *C 1.805 5.13
*I *91:B I *L 2892.923 *C 15.295 9.61
*I *87:A I *L 2615.462 *C 14.345 5.13
*P *32 I *C 18.205 7.51
*N *32:5 *C 14.345 5.13
*N *32:6 *C 14.345 5.13
*N *32:7 *C 15.495 7.51
*N *32:8 *C 15.495 7.51
*N *32:9 *C 1.805 5.13
*N *32:10 *C 1.805 5.13
*N *32:11 *C 13.815 5.13
*N *32:12 *C 13.815 5.13
*N *32:13 *C 13.815 6.53
*N *32:14 *C 13.815 6.53
*N *32:15 *C 15.495 6.53
*N *32:16 *C 15.495 6.53
*N *32:17 *C 15.495 8.35
*N *32:18 *C 15.495 8.35
*N *32:19 *C 15.295 8.91
*N *32:20 *C 15.295 8.91
*N *32:21 *C 15.295 9.61
*N *32:22 *C 14.935 8.35
*N *32:23 *C 14.935 8.91

*CAP
1 *90:A 0.009660406
2 *91:B 0.0
3 *87:A 0.01350551
4 *32 0.1885215
5 *32:5 0.03387914
6 *32:6 0.01350551
7 *32:7 0.1030919
8 *32:8 0.1832523
9 *32:9 0.7923783
10 *32:10 0.009660406
11 *32:11 0.08834594
12 *32:12 0.8313785
13 *32:13 0.08834594
14 *32:14 0.100663
15 *32:15 0.05386997
16 *32:16 0.100663
17 *32:17 0.0439528
18 *32:18 0.03675307
19 *32:19 0.01549119
20 *32:20 0.058118
21 *32:21 0.06072858
22 *32:22 0.0715291
23 *32:23 0.05019313

*RES
1 *32:5 *32:6 22.5
2 *32:6 *87:A 22.5
3 *32:7 *32:8 22.5
4 *32:9 *32:10 22.5
5 *32:10 *90:A 22.5
6 *32:11 *32:12 22.5
7 *32:13 *32:14 22.5
8 *32:15 *32:16 22.5
9 *32:17 *32:18 22.5
10 *32:19 *32:20 22.5
11 *32:21 *91:B 22.5
12 *32:20 *32:21 1.68235
13 *32:9 *32:12 39.66036
14 *32:12 *32:5 1.384914
15 *32:14 *32:16 4.64012
16 *32:22 *32:18 1.567061
17 *32:22 *32:23 1.539753
18 *32:23 *32:19 0.9106299
19 *32:8 *32 10.95137
20 *32:11 *32:13 2.729848
21 *32:15 *32:7 1.863206
22 *32:7 *32:17 1.613092

*END

*D_NET *92 0.200944

*CONN
*I *90:B I *L 2892.923 *C 1.995 5.27
*I *93:ZN O *L 0.0 *D AND2_X1 *C 2.565 6.11
*N *92:3 *C 2.565 6.11
*N *92:4 *C 1.995 5.27
*N *92:5 *C 1.995 6.11

*CAP
1 *90:B 0.0
2 *93:ZN 0.0
3 *92:3 0.04500217
4 *92:4 0.05159311
5 *92:5 0.1043488

*RES
1 *92:3 *93:ZN 22.5
2 *92:4 *90:B 22.5
3 *92:4 *92:5 2.167568
4 *92:5 *92:3 1.355144

*END

*D_NET *71 0.4936919

*CONN
*I *90:Z O *L 0.0 *D XOR2_X1 *C 1.795 5.65
*P *71 O *C 0.035 3.59
*N *71:3 *C 1.425 4.85
*N *71:4 *C 1.425 4.85
*N *71:5 *C 1.235 3.59
*N *71:6 *C 1.235 3.59
*N *71:7 *C 1.235 4.85

*CAP
1 *90:Z 0.05486129
2 *71 0.07615511
3 *71:3 0.024186
4 *71:4 0.05227679
5 *71:5 0.07096004
6 *71:6 0.09164354
7 *71:7 0.1236091

*RES
1 *71:3 *71:4 22.5
2 *71:5 *71:6 22.5
3 *71:4 *90:Z 2.18269
4 *71:6 *71:7 2.814299
5 *71:7 *71:3 0.3417287
6 *71 *71:5 2.96204

*END

*D_NET *33 2.541797

*CONN
*I *94:A I *L 2615.462 *C 0.665 5.27
*I *77:A I *L 2615.462 *C 15.295 6.67
*I *95:B I *L 2892.923 *C 16.245 7.79
*P *33 I *C 18.205 8.49
*N *33:5 *C 15.295 6.67
*N *33:6 *C 15.295 6.25
*N *33:7 *C 15.295 6.25
*N *33:8 *C 0.665 6.11
*N *33:9 *C 0.665 6.11
*N *33:10 *C 0.665 5.27
*N *33:11 *C 16.245 7.79
*N *33:12 *C 16.245 6.25
*N *33:13 *C 16.245 6.25
*N *33:14 *C 16.815 8.07
*N *33:15 *C 16.815 8.49
*N *33:16 *C 16.815 8.49
*N *33:17 *C 14.725 6.11
*N *33:18 *C 14.725 6.25

*CAP
1 *94:A 0.0
2 *77:A 0.0
3 *95:B 0.01272915
4 *33 0.06649563
5 *33:5 0.04347274
6 *33:6 0.07030679
7 *33:7 0.04086215
8 *33:8 0.8242388
9 *33:9 0.0790859
10 *33:10 0.08169648
11 *33:11 0.1179883
12 *33:12 0.04539569
13 *33:13 0.1153777
14 *33:14 0.06494958
15 *33:15 0.06130055
16 *33:16 0.04702535
17 *33:17 0.8376975
18 *33:18 0.03317482

*RES
1 *33:5 *77:A 22.5
2 *33:6 *33:7 22.5
3 *33:8 *33:9 22.5
4 *33:10 *94:A 22.5
5 *33:11 *95:B 22.5
6 *33:12 *33:13 22.5
7 *33:14 *95:B 22.5
8 *33:15 *33:16 22.5
9 *33:10 *33:9 1.895231
10 *33:7 *33:5 0.9904441
11 *33:13 *33:11 4.442071
12 *33:14 *33:16 0.896923
13 *33:8 *33:17 39.88596
14 *33:17 *33:18 0.4244101
15 *33:18 *33:6 1.878401
16 *33:6 *33:12 2.815789
17 *33:15 *33 3.285512

*END

*D_NET *96 0.1986309

*CONN
*I *94:B I *L 2892.923 *C 0.855 5.13
*I *97:ZN O *L 0.0 *D AND2_X1 *C 1.0 6.11
*N *96:3 *C 0.855 5.13
*N *96:4 *C 1.0 6.11
*N *96:5 *C 0.855 6.11

*CAP
1 *94:B 0.0
2 *97:ZN 0.0
3 *96:3 0.07579714
4 *96:4 0.02093381
5 *96:5 0.1018999

*RES
1 *96:3 *94:B 22.5
2 *96:4 *97:ZN 22.5
3 *96:3 *96:5 3.225969
4 *96:5 *96:4 0.2135805

*END

*D_NET *72 0.2180701

*CONN
*I *94:Z O *L 0.0 *D XOR2_X1 *C 0.655 5.65
*P *72 O *C 0.035 4.57
*N *72:3 *C 0.475 4.57
*N *72:4 *C 0.475 4.57
*N *72:5 *C 0.475 4.85
*N *72:6 *C 0.475 4.85

*CAP
1 *94:Z 0.03730751
2 *72 0.03472112
3 *72:3 0.02952605
4 *72:4 0.03959091
5 *72:5 0.04220149
6 *72:6 0.03472302

*RES
1 *72:3 *72:4 22.5
2 *72:5 *72:6 22.5
3 *72:6 *94:Z 1.431562
4 *72:4 *72:5 0.8849479
5 *72 *72:3 1.33458

*END

*D_NET *34 2.404468

*CONN
*I *98:A I *L 2615.462 *C 4.085 6.67
*I *82:A I *L 2615.462 *C 14.345 7.93
*I *95:A I *L 2615.462 *C 16.625 7.93
*P *34 I *C 18.205 9.33
*N *34:5 *C 17.455 9.33
*N *34:6 *C 17.455 9.33
*N *34:7 *C 17.455 7.65
*N *34:8 *C 17.455 7.65
*N *34:9 *C 16.625 7.93
*N *34:10 *C 16.625 7.65
*N *34:11 *C 16.625 7.65
*N *34:12 *C 4.085 6.67
*N *34:13 *C 4.085 7.09
*N *34:14 *C 4.085 7.09
*N *34:15 *C 5.975 7.09
*N *34:16 *C 5.975 7.09
*N *34:17 *C 5.975 7.65
*N *34:18 *C 5.975 7.65
*N *34:19 *C 14.345 7.93
*N *34:20 *C 14.345 8.07
*N *34:21 *C 14.345 8.07
*N *34:22 *C 14.345 7.65

*CAP
1 *98:A 0.0
2 *82:A 0.0
3 *95:A 0.0
4 *34 0.04078368
5 *34:5 0.117028
6 *34:6 0.03551453
7 *34:7 0.117028
8 *34:8 0.06241357
9 *34:9 0.03414398
10 *34:10 0.1976853
11 *34:11 0.03153341
12 *34:12 0.04741091
13 *34:13 0.1291757
14 *34:14 0.04480032
15 *34:15 0.0567126
16 *34:16 0.1291016
17 *34:17 0.0567126
18 *34:18 0.5304535
19 *34:19 0.01950688
20 *34:20 0.02943377
21 *34:21 0.0194808
22 *34:22 0.7055492

*RES
1 *34:5 *34:6 22.5
2 *34:7 *34:8 22.5
3 *34:9 *95:A 22.5
4 *34:10 *34:11 22.5
5 *34:12 *98:A 22.5
6 *34:13 *34:14 22.5
7 *34:15 *34:16 22.5
8 *34:17 *34:18 22.5
9 *34:19 *82:A 22.5
10 *34:20 *34:21 22.5
11 *34:12 *34:14 1.18193
12 *34:19 *34:21 0.4536446
13 *34:11 *34:9 0.7001137
14 *34:13 *34:16 5.779499
15 *34:18 *34:22 25.98553
16 *34:22 *34:10 7.210758
17 *34:10 *34:8 3.681094
18 *34:22 *34:20 0.9924142
19 *34:6 *34 2.070643
20 *34:15 *34:17 1.24084
21 *34:7 *34:5 3.236561

*END

*D_NET *99 0.2223982

*CONN
*I *98:B I *L 2892.923 *C 3.895 6.81
*I *100:ZN O *L 0.0 *D AND2_X1 *C 3.325 7.51
*N *99:3 *C 3.895 6.81
*N *99:4 *C 3.895 7.51
*N *99:5 *C 3.895 7.51
*N *99:6 *C 3.325 7.51
*N *99:7 *C 3.325 7.51

*CAP
1 *98:B 0.0
2 *100:ZN 0.01046794
3 *99:3 0.0639348
4 *99:4 0.03810165
5 *99:5 0.06132422
6 *99:6 0.03810165
7 *99:7 0.01046794

*RES
1 *99:3 *98:B 22.5
2 *99:4 *99:5 22.5
3 *99:6 *99:7 22.5
4 *99:7 *100:ZN 22.5
5 *99:3 *99:5 2.148568
6 *99:6 *99:4 1.637226

*END

*D_NET *73 0.5733308

*CONN
*I *98:Z O *L 0.0 *D XOR2_X1 *C 4.085 6.11
*P *73 O *C 0.035 5.55
*N *73:3 *C 1.775 5.55
*N *73:4 *C 1.775 5.55
*N *73:5 *C 1.775 5.97
*N *73:6 *C 1.775 5.97
*N *73:7 *C 4.085 5.97
*N *73:8 *C 4.085 5.97
*N *73:9 *C 4.085 6.11

*CAP
1 *98:Z 0.0
2 *73 0.09396651
3 *73:3 0.03437227
4 *73:4 0.08869736
5 *73:5 0.03437227
6 *73:6 0.155593
7 *73:7 0.1556671
8 *73:8 0.004025865
9 *73:9 0.006636445

*RES
1 *73:3 *73:4 22.5
2 *73:5 *73:6 22.5
3 *73:7 *73:8 22.5
4 *73:9 *98:Z 22.5
5 *73:8 *73:9 0.1311312
6 *73 *73:4 4.092071
7 *73:6 *73:7 7.553562
8 *73:3 *73:5 1.029191

*END

*D_NET *35 2.697605

*CONN
*I *101:A I *L 2615.462 *C 1.805 8.07
*I *86:A I *L 2615.462 *C 17.385 9.47
*I *102:B I *L 2892.923 *C 16.435 9.61
*P *35 I *C 18.205 10.31
*N *35:5 *C 17.005 10.31
*N *35:6 *C 17.005 10.31
*N *35:7 *C 17.005 9.47
*N *35:8 *C 17.005 9.47
*N *35:9 *C 1.805 8.07
*N *35:10 *C 1.995 9.61
*N *35:11 *C 1.995 9.61
*N *35:12 *C 17.385 9.47
*N *35:13 *C 17.385 9.47
*N *35:14 *C 16.435 9.61
*N *35:15 *C 16.435 9.61
*N *35:16 *C 1.805 8.21
*N *35:17 *C 1.995 8.21
*N *35:18 *C 17.005 9.61

*CAP
1 *101:A 0.0
2 *86:A 0.0
3 *102:B 0.01139848
4 *35 0.05475257
5 *35:5 0.0495575
6 *35:6 0.07176199
7 *35:7 0.01987877
8 *35:8 0.07176199
9 *35:9 0.009933094
10 *35:10 1.044109
11 *35:11 0.08533327
12 *35:12 0.008410426
13 *35:13 0.02815253
14 *35:14 1.070969
15 *35:15 0.01139848
16 *35:16 0.02758307
17 *35:17 0.1030093
18 *35:18 0.02959517

*RES
1 *35:5 *35:6 22.5
2 *35:7 *35:8 22.5
3 *35:9 *101:A 22.5
4 *35:10 *35:11 22.5
5 *35:12 *86:A 22.5
6 *35:13 *35:12 22.5
7 *35:14 *35:15 22.5
8 *35:15 *102:B 22.5
9 *35:9 *35:16 0.6276989
10 *35:16 *35:17 0.5410706
11 *35:17 *35:11 3.094674
12 *35:8 *35:6 1.775183
13 *35:10 *35:14 57.76205
14 *35:14 *35:18 1.955539
15 *35:7 *35:18 0.2908274
16 *35:7 *35:13 1.518168
17 *35:5 *35 2.847251

*END

*D_NET *103 0.3618559

*CONN
*I *101:B I *L 2892.923 *C 1.995 7.93
*I *104:ZN O *L 0.0 *D AND2_X1 *C 3.09 8.91
*N *103:3 *C 1.995 7.93
*N *103:4 *C 1.995 7.93
*N *103:5 *C 2.055 7.93
*N *103:6 *C 2.055 8.91
*N *103:7 *C 2.055 8.91
*N *103:8 *C 3.09 8.91
*N *103:9 *C 3.09 8.91

*CAP
1 *101:B 0.0
2 *104:ZN 0.01126315
3 *103:3 0.008510356
4 *103:4 0.02223567
5 *103:5 0.08813249
6 *103:6 0.0743331
7 *103:7 0.07302197
8 *103:8 0.07309604
9 *103:9 0.01126315

*RES
1 *103:3 *101:B 22.5
2 *103:4 *103:3 22.5
3 *103:5 *103:4 22.5
4 *103:6 *103:7 22.5
5 *103:8 *103:9 22.5
6 *103:9 *104:ZN 22.5
7 *103:7 *103:8 3.099902
8 *103:5 *103:6 2.004343

*END

*D_NET *74 0.4838722

*CONN
*I *101:Z O *L 0.0 *D XOR2_X1 *C 1.995 7.65
*P *74 O *C 0.035 6.53
*N *74:3 *C 0.375 6.53
*N *74:4 *C 0.375 6.53
*N *74:5 *C 0.375 7.65
*N *74:6 *C 0.375 7.65
*N *74:7 *C 1.995 7.65
*N *74:8 *C 1.995 7.65

*CAP
1 *101:Z 0.01182324
2 *74 0.02665603
3 *74:3 0.09080678
4 *74:4 0.02138688
5 *74:5 0.09080678
6 *74:6 0.1152476
7 *74:7 0.1153217
8 *74:8 0.01182324

*RES
1 *74:3 *74:4 22.5
2 *74:5 *74:6 22.5
3 *74:7 *74:8 22.5
4 *74:8 *101:Z 22.5
5 *74 *74:4 1.073351
6 *74:6 *74:7 4.548609
7 *74:3 *74:5 2.267125

*END

*D_NET *20 3.035433

*CONN
*I *105:A I *L 2615.462 *C 0.475 7.93
*I *91:A I *L 2615.462 *C 15.485 9.47
*I *102:A I *L 2615.462 *C 16.245 9.47
*P *20 I *C 18.205 11.29
*N *20:5 *C 16.245 11.15
*N *20:6 *C 16.245 11.15
*N *20:7 *C 16.245 9.47
*N *20:8 *C 15.485 9.47
*N *20:9 *C 15.485 9.47
*N *20:10 *C 16.245 9.47
*N *20:11 *C 15.105 9.47
*N *20:12 *C 15.105 9.47
*N *20:13 *C 1.775 9.47
*N *20:14 *C 1.775 9.47
*N *20:15 *C 1.775 7.93
*N *20:16 *C 1.775 7.93
*N *20:17 *C 0.475 7.93
*N *20:18 *C 0.475 7.93
*N *20:19 *C 18.205 11.15

*CAP
1 *105:A 0.01508373
2 *91:A 0.0
3 *102:A 0.0
4 *20 0.002371039
5 *20:5 0.09805956
6 *20:6 0.1107598
7 *20:7 0.1107598
8 *20:8 0.008954878
9 *20:9 0.07355981
10 *20:10 0.05940986
11 *20:11 0.01018591
12 *20:12 1.028127
13 *20:13 0.1009953
14 *20:14 1.012672
15 *20:15 0.1009953
16 *20:16 0.09135797
17 *20:17 0.09143205
18 *20:18 0.01508373
19 *20:19 0.1056257

*RES
1 *20:5 *20:6 22.5
2 *20:7 *102:A 22.5
3 *20:8 *91:A 22.5
4 *20:9 *20:8 22.5
5 *20:10 *20:7 22.5
6 *20:11 *91:A 22.5
7 *20:12 *20:11 22.5
8 *20:13 *20:14 22.5
9 *20:15 *20:16 22.5
10 *20:17 *20:18 22.5
11 *20:18 *105:A 22.5
12 *20:7 *20:6 3.927919
13 *20:17 *20:16 3.321376
14 *20:14 *20:12 54.95784
15 *20:9 *20:10 3.213938
16 *20:5 *20:19 4.924302
17 *20:19 *20 0.1575889
18 *20:15 *20:13 3.013349

*END

*D_NET *106 0.35296

*CONN
*I *105:B I *L 2892.923 *C 0.855 7.93
*I *107:ZN O *L 0.0 *D AND2_X1 *C 1.76 8.91
*N *106:3 *C 0.855 7.93
*N *106:4 *C 0.855 8.91
*N *106:5 *C 0.855 8.91
*N *106:6 *C 1.76 8.91
*N *106:7 *C 1.76 8.91

*CAP
1 *105:B 0.0
2 *107:ZN 0.01207992
3 *106:3 0.08984488
4 *106:4 0.07586049
5 *106:5 0.08723431
6 *106:6 0.07586049
7 *106:7 0.01207992

*RES
1 *106:3 *105:B 22.5
2 *106:4 *106:5 22.5
3 *106:6 *106:7 22.5
4 *106:7 *107:ZN 22.5
5 *106:3 *106:5 2.742149
6 *106:4 *106:6 3.08928

*END

*D_NET *75 0.1512277

*CONN
*I *105:Z O *L 0.0 *D XOR2_X1 *C 0.655 8.45
*P *75 O *C 0.035 7.51
*N *75:3 *C 0.475 7.51
*N *75:4 *C 0.475 7.51
*N *75:5 *C 0.475 7.65
*N *75:6 *C 0.475 7.65

*CAP
1 *105:Z 0.03736582
2 *75 0.03637753
3 *75:3 0.03118246
4 *75:4 0.004454997
5 *75:5 0.007065577
6 *75:6 0.03478133

*RES
1 *75:3 *75:4 22.5
2 *75:5 *75:6 22.5
3 *75:6 *105:Z 1.431562
4 *75:4 *75:5 0.1326496
5 *75 *75:3 1.26565

*END

*D_NET *21 2.45482

*CONN
*I *108:A I *L 2615.462 *C 0.665 10.87
*I *109:B I *L 2892.923 *C 16.435 12.27
*I *110:B I *L 2892.923 *C 17.575 12.27
*P *21 I *C 18.205 12.27
*N *21:5 *C 17.575 12.27
*N *21:6 *C 17.575 12.27
*N *21:7 *C 16.435 12.27
*N *21:8 *C 16.435 11.71
*N *21:9 *C 16.435 11.71
*N *21:10 *C 0.665 10.87
*N *21:11 *C 0.665 11.29
*N *21:12 *C 0.665 11.29
*N *21:13 *C 3.895 11.29
*N *21:14 *C 3.895 11.71
*N *21:15 *C 16.435 11.85
*N *21:16 *C 18.145 11.85
*N *21:17 *C 18.145 12.27

*CAP
1 *108:A 0.0
2 *109:B 0.0
3 *110:B 0.0
4 *21 0.01452085
5 *21:5 0.009488506
6 *21:6 0.04598076
7 *21:7 0.049983
8 *21:8 0.7976307
9 *21:9 0.04737242
10 *21:10 0.04286836
11 *21:11 0.171661
12 *21:12 0.04284228
13 *21:13 0.2017165
14 *21:14 0.8187398
15 *21:15 0.08497453
16 *21:16 0.08812724
17 *21:17 0.03891392

*RES
1 *21:5 *110:B 22.5
2 *21:6 *21:5 22.5
3 *21:7 *109:B 22.5
4 *21:8 *21:9 22.5
5 *21:10 *108:A 22.5
6 *21:11 *21:12 22.5
7 *21:10 *21:12 0.9981484
8 *21:9 *21:7 1.331509
9 *21:11 *21:13 8.001874
10 *21:13 *21:14 1.248308
11 *21:14 *21:8 39.31064
12 *21:8 *21:15 0.4748239
13 *21:15 *21:16 4.390095
14 *21:6 *21:17 1.86833
15 *21:17 *21 0.1575889
16 *21:16 *21 0.8068872

*END

*D_NET *111 0.1910003

*CONN
*I *108:B I *L 2892.923 *C 0.855 10.73
*I *112:ZN O *L 0.0 *D AND2_X1 *C 1.805 10.73
*N *111:3 *C 0.855 10.73
*N *111:4 *C 0.855 10.73
*N *111:5 *C 1.805 10.73
*N *111:6 *C 1.805 10.73

*CAP
1 *108:B 0.0
2 *112:ZN 0.01198068
3 *111:3 0.009156107
4 *111:4 0.08611701
5 *111:5 0.07176582
6 *111:6 0.01198068

*RES
1 *111:3 *108:B 22.5
2 *111:4 *111:3 22.5
3 *111:5 *111:6 22.5
4 *111:6 *112:ZN 22.5
5 *111:4 *111:5 3.11967

*END

*D_NET *60 0.4323789

*CONN
*I *108:Z O *L 0.0 *D XOR2_X1 *C 1.045 10.45
*P *60 O *C 0.035 8.49
*N *60:3 *C 1.045 8.49
*N *60:4 *C 1.045 8.49
*N *60:5 *C 1.045 10.45

*CAP
1 *108:Z 0.0
2 *60 0.06523784
3 *60:3 0.06004277
4 *60:4 0.1522439
5 *60:5 0.1548544

*RES
1 *60:3 *60:4 22.5
2 *60:5 *108:Z 22.5
3 *60:4 *60:5 5.510316
4 *60 *60:3 2.409135

*END

*D_NET *22 2.504533

*CONN
*I *113:A I *L 2615.462 *C 3.705 9.47
*I *114:B I *L 2892.923 *C 13.775 12.27
*I *110:A I *L 2615.462 *C 17.005 12.27
*P *22 I *C 18.205 13.25
*N *22:5 *C 17.955 13.25
*N *22:6 *C 17.955 13.25
*N *22:7 *C 17.955 12.13
*N *22:8 *C 17.955 12.13
*N *22:9 *C 13.775 12.27
*N *22:10 *C 13.775 12.13
*N *22:11 *C 13.775 12.13
*N *22:12 *C 17.005 12.27
*N *22:13 *C 17.005 12.13
*N *22:14 *C 17.005 12.13
*N *22:15 *C 10.455 11.99
*N *22:16 *C 10.455 11.99
*N *22:17 *C 10.455 10.03
*N *22:18 *C 10.455 10.03
*N *22:19 *C 3.705 10.03
*N *22:20 *C 3.705 10.03
*N *22:21 *C 3.705 9.47
*N *22:22 *C 13.965 11.99
*N *22:23 *C 13.965 12.13

*CAP
1 *113:A 0.0
2 *114:B 0.0
3 *110:A 0.0
4 *22 0.01266045
5 *22:5 0.007465375
6 *22:6 0.050807
7 *22:7 0.05059593
8 *22:8 0.050807
9 *22:9 0.006715549
10 *22:10 0.01408118
11 *22:11 0.004104969
12 *22:12 0.006562392
13 *22:13 0.2313601
14 *22:14 0.006549349
15 *22:15 0.1528739
16 *22:16 0.2587611
17 *22:17 0.1528739
18 *22:18 0.459531
19 *22:19 0.4596051
20 *22:20 0.05311681
21 *22:21 0.05572739
22 *22:22 0.2684611
23 *22:23 0.2018737

*RES
1 *22:5 *22:6 22.5
2 *22:7 *22:8 22.5
3 *22:9 *114:B 22.5
4 *22:10 *22:11 22.5
5 *22:12 *110:A 22.5
6 *22:13 *22:14 22.5
7 *22:15 *22:16 22.5
8 *22:17 *22:18 22.5
9 *22:19 *22:20 22.5
10 *22:21 *113:A 22.5
11 *22:21 *22:20 1.504937
12 *22:11 *22:9 0.1311312
13 *22:14 *22:12 0.1318904
14 *22:8 *22:6 2.232187
15 *22:19 *22:18 21.39507
16 *22:16 *22:22 14.34049
17 *22:10 *22:23 0.9443707
18 *22:23 *22:13 9.921362
19 *22:13 *22:7 2.711017
20 *22:22 *22:23 0.2053329
21 *22:5 *22 0.6570792
22 *22:17 *22:15 3.778542

*END

*D_NET *115 0.1131881

*CONN
*I *113:B I *L 2892.923 *C 4.085 9.61
*I *116:ZN O *L 0.0 *D AND2_X1 *C 4.085 10.31
*N *115:3 *C 4.085 9.61
*N *115:4 *C 4.085 10.31

*CAP
1 *113:B 0.0
2 *116:ZN 0.0
3 *115:3 0.05659404
4 *115:4 0.05659404

*RES
1 *115:3 *113:B 22.5
2 *115:4 *116:ZN 22.5