*SPEF "1481-1998"
*DESIGN "c880"
*DATE "Wed Jul  2 16:44:33 2014"
*VENDOR "Synopsys, Inc."
*PROGRAM "icc_shell"
*VERSION "G-2012.06-ICC-SP5"
*DESIGN_FLOW "PIN_CAP NONE"
*DIVIDER /
*DELIMITER :
*BUS_DELIMITER [ ]
*T_UNIT 1 NS
*C_UNIT 1 FF
*R_UNIT 1 OHM
*L_UNIT 1 HENRY

*NAME_MAP
*1 N29
*2 N26
*3 N17
*4 N13
*5 N8
*6 N1
*7 VDD
*8 VSS
*9 N73
*10 N72
*11 N68
*12 N59
*13 N55
*14 N51
*15 N42
*16 N36
*17 N89
*18 N88
*19 N87
*20 N86
*21 N85
*22 N80
*23 N75
*24 N74
*25 N121
*26 N116
*27 N111
*28 N106
*29 N101
*30 N96
*31 N91
*32 N90
*33 N152
*34 N149
*35 N146
*36 N143
*37 N138
*38 N135
*39 N130
*40 N126
*41 N189
*42 N183
*43 N177
*44 N171
*45 N165
*46 N159
*47 N156
*48 N153
*49 N246
*50 N237
*51 N228
*52 N219
*53 N210
*54 N207
*55 N201
*56 N195
*57 N389
*58 N388
*59 N268
*60 N267
*61 N261
*62 N260
*63 N259
*64 N255
*65 N423
*66 N422
*67 N421
*68 N420
*69 N419
*70 N418
*71 N391
*72 N390
*73 N850
*74 N768
*75 N767
*76 N450
*77 N449
*78 N448
*79 N447
*80 N446
*81 N880
*82 N879
*83 N878
*84 N874
*85 N866
*86 N865
*87 N864
*88 N863
*89 N877
*90 BUFF1_383
*91 NOT1_380
*92 N876
*93 BUFF1_382
*94 NOT1_379
*95 N875
*96 BUFF1_381
*97 NOT1_378
*98 N873
*99 NOT1_376
*100 N872
*101 NOT1_375
*102 N871
*103 NOT1_374
*104 N870
*105 BUFF1_377
*106 NOT1_373
*107 N869
*108 NAND3_372
*109 N868
*110 NAND3_371
*111 N867
*112 NAND3_370
*113 N862
*114 NOT1_365
*115 N861
*116 NOR2_364
*117 N771
*118 NOR2_293
*119 N686
*120 NOR2_238
*121 N860
*122 NOR2_363
*123 N770
*124 NOR2_292
*125 N677
*126 NOR2_235
*127 N859
*128 NOR2_362
*129 N769
*130 NOR2_291
*131 N669
*132 NOR2_232
*133 N858
*134 BUFF1_369
*135 NOT1_361
*136 N857
*137 BUFF1_368
*138 NOT1_360
*139 N856
*140 BUFF1_367
*141 NOT1_359
*142 N855
*143 BUFF1_366
*144 NOT1_358
*145 N854
*146 NAND3_357
*147 N333
*148 AND2_45
*149 N853
*150 AND2_356
*151 N332
*152 AND2_44
*153 N852
*154 AND2_355
*155 N417
*156 AND2_103
*157 N851
*158 AND2_354
*159 N849
*160 AND2_352
*161 N848
*162 NOT1_351
*163 N847
*164 NOT1_350
*165 N846
*166 NOT1_349
*167 N845
*168 NOR2_348
*169 N772
*170 NOR2_294
*171 N696
*172 NOR2_241
*173 AND2_339
*174 AND2_320
*175 AND2_319
*176 AND2_318
*177 AND2_309
*178 N844
*179 NOR2_347
*180 N843
*181 NOR2_346
*182 N842
*183 NOR2_345
*184 N840
*185 BUFF1_353
*186 NOT1_343
*187 N735
*188 NOT1_257
*189 N841
*190 NAND2_344
*191 N839
*192 NAND4_342
*193 N838
*194 NAND4_341
*195 N837
*196 NAND3_340
*197 N334
*198 AND2_46
*199 N836
*200 N834
*201 NOR2_337
*202 N835
*203 AND2_338
*204 N832
*205 NOR2_335
*206 N833
*207 AND2_336
*208 N830
*209 NOR2_333
*210 N831
*211 AND2_334
*212 N815
*213 NAND4_325
*214 N593
*215 AND2_231
*216 OR2_205
*217 N829
*218 NOT1_332
*219 N828
*220 NOR2_331
*221 N785
*222 NOR2_300
*223 N721
*224 NOR2_250
*225 N528
*226 NAND2_174
*227 N827
*228 NOR2_330
*229 N781
*230 NOR2_298
*231 N712
*232 NOR2_247
*233 N527
*234 NAND2_173
*235 N826
*236 NOR2_329
*237 N777
*238 NOR2_296
*239 N704
*240 NOR2_244
*241 N825
*242 NOR2_328
*243 N682
*244 AND2_264
*245 AND2_237
*246 N822
*247 NAND2_327
*248 N673
*249 AND2_261
*250 AND2_234
*251 N819
*252 NAND3_326
*253 N665
*254 AND2_258
*255 N811
*256 NAND4_321
*257 N338
*258 AND2_50
*259 N810
*260 N336
*261 AND2_48
*262 N809
*263 N335
*264 AND2_47
*265 N808
*266 N806
*267 NOR2_316
*268 N807
*269 AND2_317
*270 N744
*271 NOT1_266
*272 N812
*273 NAND2_322
*274 N741
*275 NOT1_263
*276 N764
*277 NAND2_286
*278 N813
*279 NAND3_323
*280 N738
*281 NOT1_260
*282 N765
*283 NAND2_287
*284 N766
*285 NAND3_288
*286 N814
*287 NAND4_324
*288 N600
*289 OR2_208
*290 N609
*291 OR2_211
*292 N619
*293 AND2_240
*294 OR2_214
*295 N796
*296 NAND2_311
*297 N805
*298 NOR2_315
*299 N787
*300 NOR2_302
*301 N731
*302 NOR2_253
*303 N529
*304 NAND2_175
*305 N804
*306 NOR2_314
*307 N803
*308 NOR2_313
*309 N802
*310 NOR2_312
*311 N692
*312 AND2_267
*313 N340
*314 AND2_52
*315 N794
*316 N792
*317 NOR2_307
*318 N793
*319 AND2_308
*320 N790
*321 NOR2_305
*322 N791
*323 AND2_306
*324 N788
*325 NOR2_303
*326 N789
*327 AND2_304
*328 N795
*329 NAND2_310
*330 N747
*331 NOT1_269
*332 N628
*333 AND2_243
*334 OR2_217
*335 N773
*336 NAND4_295
*337 N786
*338 NOR2_301
*339 N717
*340 AND2_276
*341 AND2_249
*342 N782
*343 NAND2_299
*344 N708
*345 AND2_273
*346 AND2_246
*347 N778
*348 NAND3_297
*349 N700
*350 AND2_270
*351 N759
*352 AND2_281
*353 N760
*354 AND2_282
*355 N757
*356 NOR2_279
*357 N758
*358 AND2_280
*359 N754
*360 N755
*361 AND2_277
*362 N756
*363 NOT1_278
*364 N732
*365 NAND2_254
*366 N751
*367 N752
*368 AND2_274
*369 N753
*370 NOT1_275
*371 N761
*372 NAND2_283
*373 N733
*374 NAND3_255
*375 N748
*376 N749
*377 AND2_271
*378 N750
*379 NOT1_272
*380 N762
*381 NAND2_284
*382 N763
*383 NAND3_285
*384 N734
*385 NAND4_256
*386 N745
*387 N746
*388 AND2_268
*389 N742
*390 N743
*391 AND2_265
*392 N739
*393 N740
*394 AND2_262
*395 N736
*396 N737
*397 AND2_259
*398 N661
*399 BUFF1_290
*400 NOR2_229
*401 N660
*402 BUFF1_289
*403 NOR2_228
*404 N687
*405 NOT1_239
*406 N678
*407 NOT1_236
*408 N635
*409 OR2_220
*410 N644
*411 OR2_223
*412 N722
*413 NOT1_251
*414 N713
*415 NOT1_248
*416 N727
*417 AND2_252
*418 N705
*419 NOT1_245
*420 N697
*421 NOT1_242
*422 N670
*423 NOT1_233
*424 N662
*425 NOT1_230
*426 N654
*427 OR2_226
*428 N341
*429 AND2_53
*430 N659
*431 AND2_227
*432 N651
*433 NAND2_225
*434 N339
*435 AND2_51
*436 N650
*437 AND2_224
*438 N641
*439 NAND2_222
*440 N337
*441 AND2_49
*442 N640
*443 AND2_221
*444 N632
*445 NAND2_219
*446 N631
*447 AND2_218
*448 N526
*449 AND2_172
*450 N625
*451 NAND2_216
*452 N624
*453 AND2_215
*454 N525
*455 AND2_171
*456 N616
*457 NAND2_213
*458 N615
*459 AND2_212
*460 N524
*461 AND2_170
*462 N606
*463 NAND2_210
*464 N605
*465 AND2_209
*466 N523
*467 AND2_169
*468 N597
*469 NAND2_207
*470 N596
*471 AND2_206
*472 N522
*473 AND2_168
*474 N590
*475 NAND2_204
*476 N587
*477 AND2_201
*478 N589
*479 AND2_203
*480 N552
*481 AND2_190
*482 N588
*483 AND2_202
*484 N581
*485 NAND2_198
*486 OR2_43
*487 NAND2_42
*488 N577
*489 NAND2_197
*490 N573
*491 NAND2_196
*492 OR2_41
*493 NAND2_40
*494 N569
*495 NAND2_195
*496 N565
*497 NAND2_194
*498 OR2_39
*499 NAND2_38
*500 N561
*501 NAND2_193
*502 N557
*503 NAND2_192
*504 OR2_37
*505 NAND2_36
*506 N553
*507 NAND2_191
*508 N585
*509 NOT1_199
*510 N586
*511 NOT1_200
*512 N550
*513 NOT1_188
*514 N551
*515 NOT1_189
*516 N544
*517 NAND2_186
*518 N547
*519 NAND2_187
*520 N491
*521 OR2_141
*522 N543
*523 NOR2_185
*524 N490
*525 OR2_140
*526 N542
*527 NOR2_184
*528 N489
*529 OR2_139
*530 N541
*531 NOR2_183
*532 N488
*533 OR2_138
*534 N540
*535 NOR2_182
*536 N539
*537 NOR2_181
*538 N509
*539 NOR2_155
*540 N538
*541 NOR2_180
*542 N507
*543 NOR2_153
*544 N537
*545 NOR2_179
*546 N505
*547 NOR2_151
*548 N536
*549 NOR2_178
*550 N503
*551 NOR2_149
*552 N530
*553 NAND2_176
*554 N533
*555 NAND2_177
*556 N520
*557 NAND2_166
*558 N521
*559 OR2_167
*560 N518
*561 NAND2_164
*562 N519
*563 OR2_165
*564 N516
*565 AND2_162
*566 N517
*567 AND2_163
*568 N514
*569 AND2_160
*570 N515
*571 AND2_161
*572 N512
*573 AND2_158
*574 N513
*575 AND2_159
*576 N510
*577 AND2_156
*578 N511
*579 AND2_157
*580 N318
*581 AND2_32
*582 N508
*583 AND2_154
*584 N317
*585 AND2_31
*586 N506
*587 AND2_152
*588 N316
*589 AND2_30
*590 N504
*591 AND2_150
*592 N309
*593 AND2_28
*594 N502
*595 AND2_148
*596 N500
*597 NAND2_146
*598 N501
*599 OR2_147
*600 N498
*601 NAND2_144
*602 N499
*603 OR2_145
*604 N451
*605 NOT1_125
*606 N495
*607 NOR2_143
*608 N492
*609 NOR2_142
*610 OR2_27
*611 NAND2_26
*612 N466
*613 NAND2_128
*614 AND2_135
*615 N483
*616 NAND2_137
*617 AND2_133
*618 OR2_25
*619 NAND2_24
*620 AND2_131
*621 AND2_129
*622 N481
*623 N482
*624 AND2_136
*625 OR2_23
*626 NAND2_22
*627 N479
*628 N480
*629 AND2_134
*630 N477
*631 N478
*632 AND2_132
*633 OR2_21
*634 NAND2_20
*635 N475
*636 N476
*637 AND2_130
*638 N463
*639 NOR2_127
*640 N460
*641 NOR2_126
*642 N416
*643 AND2_102
*644 N445
*645 AND2_119
*646 N413
*647 AND2_99
*648 N444
*649 AND2_118
*650 N369
*651 NOT1_73
*652 N437
*653 NAND3_115
*654 N443
*655 NAND3_117
*656 NAND4_6
*657 NAND4_5
*658 AND3_4
*659 NAND4_2
*660 NAND4_1
*661 N310
*662 NOT1_29
*663 N432
*664 AND3_114
*665 N427
*666 AND3_113
*667 N442
*668 NAND4_116
*669 N410
*670 NAND2_96
*671 N409
*672 AND2_95
*673 N426
*674 AND2_112
*675 N406
*676 AND2_92
*677 N425
*678 AND2_111
*679 N424
*680 NOT1_110
*681 N403
*682 BUFF1_124
*683 NOT1_89
*684 N402
*685 BUFF1_123
*686 NOT1_88
*687 N401
*688 BUFF1_122
*689 NOT1_87
*690 N399
*691 BUFF1_121
*692 NOT1_85
*693 N392
*694 BUFF1_120
*695 OR2_83
*696 N414
*697 NOT1_100
*698 N415
*699 NOT1_101
*700 N411
*701 NOT1_97
*702 N412
*703 NOT1_98
*704 N393
*705 NOT1_84
*706 N319
*707 NAND2_33
*708 AND2_35
*709 NOR2_34
*710 N375
*711 NOR2_74
*712 AND3_17
*713 AND3_16
*714 AND3_15
*715 AND3_14
*716 NAND3_9
*717 NAND4_7
*718 N287
*719 AND3_10
*720 N407
*721 NOT1_93
*722 N408
*723 NOT1_94
*724 N404
*725 NOT1_90
*726 N405
*727 NOT1_91
*728 N400
*729 AND2_86
*730 N356
*731 BUFF1_109
*732 AND2_68
*733 N354
*734 BUFF1_108
*735 NOT1_66
*736 N353
*737 BUFF1_107
*738 NOT1_65
*739 N351
*740 BUFF1_106
*741 NOT1_63
*742 N344
*743 BUFF1_105
*744 OR2_56
*745 N342
*746 BUFF1_104
*747 NOT1_54
*748 N382
*749 NAND2_77
*750 N385
*751 NAND2_78
*752 N376
*753 NAND2_75
*754 N379
*755 NAND2_76
*756 N347
*757 NOT1_59
*758 N352
*759 NOT1_64
*760 N363
*761 NAND2_71
*762 N366
*763 NAND2_72
*764 N357
*765 NAND2_69
*766 N360
*767 NAND2_70
*768 N355
*769 NAND2_67
*770 N350
*771 OR2_62
*772 N349
*773 OR2_61
*774 N348
*775 NOR2_60
*776 N346
*777 NOT1_58
*778 N345
*779 NOT1_57
*780 N270
*781 N343
*782 NOT1_55
*783 N297
*784 BUFF1_82
*785 AND2_18
*786 N292
*787 BUFF1_81
*788 AND3_13
*789 N291
*790 BUFF1_80
*791 AND3_12
*792 N290
*793 BUFF1_79
*794 AND3_11
*795 N330
*796 N331
*797 N328
*798 N329
*799 N326
*800 N327
*801 N324
*802 N325
*803 N322
*804 N323
*805 N307
*806 N308
*807 N305
*808 N306
*809 N303
*810 N304
*811 N301
*812 N302
*813 N298
*814 OR2_19
*815 N296
*816 N295
*817 N294
*818 N293
*819 N280
*820 N286
*821 N285
*822 NAND2_8
*823 N284
*824 N279
*825 N276
*826 N273
*827 AND3_3
*828 N269

*PORTS
*1 I *L 0.0 *S 0.0 0.0
*2 I *L 0.0 *S 0.0 0.0
*3 I *L 0.0 *S 0.0 0.0
*4 I *L 0.0 *S 0.0 0.0
*5 I *L 0.0 *S 0.0 0.0
*6 I *L 0.0 *S 0.0 0.0
*7 I *L 0.0 *S 0.0 0.0
*8 I *L 0.0 *S 0.0 0.0
*9 I *L 0.0 *S 0.0 0.0
*10 I *L 0.0 *S 0.0 0.0
*11 I *L 0.0 *S 0.0 0.0
*12 I *L 0.0 *S 0.0 0.0
*13 I *L 0.0 *S 0.0 0.0
*14 I *L 0.0 *S 0.0 0.0
*15 I *L 0.0 *S 0.0 0.0
*16 I *L 0.0 *S 0.0 0.0
*17 I *L 0.0 *S 0.0 0.0
*18 I *L 0.0 *S 0.0 0.0
*19 I *L 0.0 *S 0.0 0.0
*20 I *L 0.0 *S 0.0 0.0
*21 I *L 0.0 *S 0.0 0.0
*22 I *L 0.0 *S 0.0 0.0
*23 I *L 0.0 *S 0.0 0.0
*24 I *L 0.0 *S 0.0 0.0
*25 I *L 0.0 *S 0.0 0.0
*26 I *L 0.0 *S 0.0 0.0
*27 I *L 0.0 *S 0.0 0.0
*28 I *L 0.0 *S 0.0 0.0
*29 I *L 0.0 *S 0.0 0.0
*30 I *L 0.0 *S 0.0 0.0
*31 I *L 0.0 *S 0.0 0.0
*32 I *L 0.0 *S 0.0 0.0
*33 I *L 0.0 *S 0.0 0.0
*34 I *L 0.0 *S 0.0 0.0
*35 I *L 0.0 *S 0.0 0.0
*36 I *L 0.0 *S 0.0 0.0
*37 I *L 0.0 *S 0.0 0.0
*38 I *L 0.0 *S 0.0 0.0
*39 I *L 0.0 *S 0.0 0.0
*40 I *L 0.0 *S 0.0 0.0
*41 I *L 0.0 *S 0.0 0.0
*42 I *L 0.0 *S 0.0 0.0
*43 I *L 0.0 *S 0.0 0.0
*44 I *L 0.0 *S 0.0 0.0
*45 I *L 0.0 *S 0.0 0.0
*46 I *L 0.0 *S 0.0 0.0
*47 I *L 0.0 *S 0.0 0.0
*48 I *L 0.0 *S 0.0 0.0
*49 I *L 0.0 *S 0.0 0.0
*50 I *L 0.0 *S 0.0 0.0
*51 I *L 0.0 *S 0.0 0.0
*52 I *L 0.0 *S 0.0 0.0
*53 I *L 0.0 *S 0.0 0.0
*54 I *L 0.0 *S 0.0 0.0
*55 I *L 0.0 *S 0.0 0.0
*56 I *L 0.0 *S 0.0 0.0
*57 O *L 0.0 *S 0.0 0.0
*58 O *L 0.0 *S 0.0 0.0
*59 I *L 0.0 *S 0.0 0.0
*60 I *L 0.0 *S 0.0 0.0
*61 I *L 0.0 *S 0.0 0.0
*62 I *L 0.0 *S 0.0 0.0
*63 I *L 0.0 *S 0.0 0.0
*64 I *L 0.0 *S 0.0 0.0
*65 O *L 0.0 *S 0.0 0.0
*66 O *L 0.0 *S 0.0 0.0
*67 O *L 0.0 *S 0.0 0.0
*68 O *L 0.0 *S 0.0 0.0
*69 O *L 0.0 *S 0.0 0.0
*70 O *L 0.0 *S 0.0 0.0
*71 O *L 0.0 *S 0.0 0.0
*72 O *L 0.0 *S 0.0 0.0
*73 O *L 0.0 *S 0.0 0.0
*74 O *L 0.0 *S 0.0 0.0
*75 O *L 0.0 *S 0.0 0.0
*76 O *L 0.0 *S 0.0 0.0
*77 O *L 0.0 *S 0.0 0.0
*78 O *L 0.0 *S 0.0 0.0
*79 O *L 0.0 *S 0.0 0.0
*80 O *L 0.0 *S 0.0 0.0
*81 O *L 0.0 *S 0.0 0.0
*82 O *L 0.0 *S 0.0 0.0
*83 O *L 0.0 *S 0.0 0.0
*84 O *L 0.0 *S 0.0 0.0
*85 O *L 0.0 *S 0.0 0.0
*86 O *L 0.0 *S 0.0 0.0
*87 O *L 0.0 *S 0.0 0.0
*88 O *L 0.0 *S 0.0 0.0

*D_NET *89 0.2546127

*CONN
*I *90:A I *L 1099.7 *C 0.095 8.07
*I *91:ZN O *L 0.0 *D INV_X1 *C 0.665 7.09
*N *89:3 *C 0.095 8.07
*N *89:4 *C 0.095 8.07
*N *89:5 *C 0.665 8.07
*N *89:6 *C 0.665 8.07
*N *89:7 *C 0.665 7.09

*CAP
1 *90:A 0.0
2 *91:ZN 0.0
3 *89:3 0.006418431
4 *89:4 0.05829901
5 *89:5 0.04928304
6 *89:6 0.07029956
7 *89:7 0.0703126

*RES
1 *89:3 *90:A 22.5
2 *89:4 *89:3 22.5
3 *89:5 *89:6 22.5
4 *89:7 *91:ZN 22.5
5 *89:7 *89:6 3.223791
6 *89:4 *89:5 2.081753

*END

*D_NET *81 0.08476364

*CONN
*I *90:Z O *L 0.0 *D BUF_X1 *C 0.475 8.21
*P *81 O *C 0.035 8.21
*N *81:3 *C 0.475 8.21
*N *81:4 *C 0.475 8.21

*CAP
1 *90:Z 0.01085055
2 *81 0.03412881
3 *81:3 0.02893374
4 *81:4 0.01085055

*RES
1 *81:3 *81:4 22.5
2 *81:4 *90:Z 22.5
3 *81 *81:3 1.266065

*END

*D_NET *92 0.3178384

*CONN
*I *93:A I *L 1099.7 *C 0.095 9.33
*I *94:ZN O *L 0.0 *D INV_X1 *C 1.037 8.0
*N *92:3 *C 1.235 8.49
*N *92:4 *C 1.235 8.49
*N *92:5 *C 1.235 8.49
*N *92:6 *C 0.095 8.49
*N *92:7 *C 0.095 8.49
*N *92:8 *C 0.095 9.33

*CAP
1 *93:A 0.0
2 *94:ZN 0.01808688
3 *92:3 0.008675321
4 *92:4 0.01550239
5 *92:5 0.08683754
6 *92:6 0.07296714
7 *92:7 0.05657925
8 *92:8 0.05918983

*RES
1 *92:3 *92:4 22.5
2 *92:5 *92:3 22.5
3 *92:6 *92:7 22.5
4 *92:8 *93:A 22.5
5 *94:ZN *92:4 0.7442309
6 *92:7 *92:8 1.936529
7 *92:6 *92:5 2.838944

*END

*D_NET *82 0.1084236

*CONN
*I *93:Z O *L 0.0 *D BUF_X1 *C 0.475 9.19
*P *82 O *C 0.035 9.19
*N *82:3 *C 0.475 9.19
*N *82:4 *C 0.475 9.19

*CAP
1 *93:Z 0.01891084
2 *82 0.0365997
3 *82:3 0.03400217
4 *82:4 0.01891084

*RES
1 *82:3 *82:4 22.5
2 *82:4 *93:Z 22.5
3 *82 *82:3 1.689587

*END

*D_NET *95 0.2705817

*CONN
*I *96:A I *L 1099.7 *C 0.665 10.87
*I *97:ZN O *L 0.0 *D INV_X1 *C 1.235 11.71
*N *95:3 *C 0.665 10.87
*N *95:4 *C 0.665 11.15
*N *95:5 *C 0.665 11.15
*N *95:6 *C 1.235 11.15
*N *95:7 *C 1.235 11.15
*N *95:8 *C 1.235 11.71

*CAP
1 *96:A 0.0
2 *97:ZN 0.0
3 *95:3 0.02936854
4 *95:4 0.05497618
5 *95:5 0.02935549
6 *95:6 0.05237864
7 *95:7 0.05094611
8 *95:8 0.0535567

*RES
1 *95:3 *96:A 22.5
2 *95:4 *95:5 22.5
3 *95:6 *95:7 22.5
4 *95:8 *97:ZN 22.5
5 *95:3 *95:5 1.222928
6 *95:7 *95:8 1.722538
7 *95:4 *95:6 2.525794

*END

*D_NET *83 0.192731

*CONN
*I *96:Z O *L 0.0 *D BUF_X1 *C 1.045 10.31
*P *83 O *C 0.035 10.03
*N *83:3 *C 1.045 10.03
*N *83:4 *C 1.045 10.03
*N *83:5 *C 1.045 10.31

*CAP
1 *96:Z 0.0
2 *83 0.06131049
3 *83:3 0.05611541
4 *83:4 0.03634726
5 *83:5 0.03895784

*RES
1 *83:3 *83:4 22.5
2 *83:5 *96:Z 22.5
3 *83:4 *83:5 0.998306
4 *83 *83:3 2.31745

*END

*D_NET *98 0.013888

*CONN
*I *91:A I *L 1938.113 *C 0.492 6.512
*I *99:ZN O *L 0.0 *D INV_X1 *C 0.277 6.6

*CAP
1 *91:A 0.006944002
2 *99:ZN 0.006944002

*RES
1 *99:ZN *91:A 0.3353294

*END

*D_NET *100 0.1785028

*CONN
*I *94:A I *L 1938.113 *C 0.855 8.07
*I *101:ZN O *L 0.0 *D INV_X1 *C 1.385 8.91
*N *100:3 *C 0.855 8.07
*N *100:4 *C 1.385 8.91
*N *100:5 *C 1.045 8.07
*N *100:6 *C 1.045 8.91

*CAP
1 *94:A 0.0
2 *101:ZN 0.0
3 *100:3 0.01804332
4 *100:4 0.02854157
5 *100:5 0.06070983
6 *100:6 0.0712081

*RES
1 *100:3 *94:A 22.5
2 *100:4 *101:ZN 22.5
3 *100:3 *100:5 0.8151069
4 *100:5 *100:6 2.758174
5 *100:6 *100:4 0.7287231

*END

*D_NET *102 0.3172485

*CONN
*I *97:A I *L 1938.113 *C 1.045 12.13
*I *103:ZN O *L 0.0 *D INV_X1 *C 1.995 13.25
*N *102:3 *C 1.045 12.13
*N *102:4 *C 1.235 13.11
*N *102:5 *C 1.235 13.11
*N *102:6 *C 1.995 13.25
*N *102:7 *C 1.995 13.25
*N *102:8 *C 1.235 12.13
*N *102:9 *C 1.995 13.11

*CAP
1 *97:A 0.0
2 *103:ZN 0.01630569
3 *102:3 0.02328654
4 *102:4 0.04930288
5 *102:5 0.04910888
6 *102:6 0.01543171
7 *102:7 0.01630569
8 *102:8 0.07757746
9 *102:9 0.06992966

*RES
1 *102:3 *97:A 22.5
2 *102:4 *102:5 22.5
3 *102:6 *102:7 22.5
4 *102:7 *103:ZN 22.5
5 *102:3 *102:8 0.5128052
6 *102:8 *102:5 3.1221
7 *102:4 *102:9 2.073792
8 *102:9 *102:6 0.1863238

*END

*D_NET *104 0.292578

*CONN
*I *105:A I *L 1099.7 *C 0.095 10.87
*I *106:ZN O *L 0.0 *D INV_X1 *C 0.855 9.89
*N *104:3 *C 0.095 10.87
*N *104:4 *C 0.095 10.87
*N *104:5 *C 0.855 10.87
*N *104:6 *C 0.855 10.87
*N *104:7 *C 0.855 9.89

*CAP
1 *105:A 0.0
2 *106:ZN 0.0
3 *104:3 0.006718767
4 *104:4 0.07068438
5 *104:5 0.05877053
6 *104:6 0.07689687
7 *104:7 0.07950745

*RES
1 *104:3 *105:A 22.5
2 *104:4 *104:3 22.5
3 *104:5 *104:6 22.5
4 *104:7 *106:ZN 22.5
5 *104:7 *104:6 2.651211
6 *104:4 *104:5 2.318449

*END

*D_NET *84 0.09181001

*CONN
*I *105:Z O *L 0.0 *D BUF_X1 *C 0.475 11.01
*P *84 O *C 0.035 11.01
*N *84:3 *C 0.475 11.01
*N *84:4 *C 0.475 11.01

*CAP
1 *105:Z 0.0111009
2 *84 0.03740165
3 *84:3 0.03220658
4 *84:4 0.0111009

*RES
1 *84:3 *84:4 22.5
2 *84:4 *105:Z 22.5
3 *84 *84:3 1.689817

*END

*D_NET *107 0.6483691

*CONN
*I *99:A I *L 1938.113 *C 0.095 6.53
*I *108:ZN O *L 0.0 *D NAND3_X1 *C 3.87 6.375
*N *107:3 *C 0.095 6.53
*N *107:4 *C 0.095 5.97
*N *107:5 *C 0.095 5.97
*N *107:6 *C 3.325 5.97
*N *107:7 *C 3.325 5.97
*N *107:8 *C 3.515 6.25
*N *107:9 *C 3.515 6.25
*N *107:10 *C 3.342 6.11
*N *107:11 *C 3.515 6.11

*CAP
1 *99:A 0.0
2 *108:ZN 0.02890294
3 *107:3 0.0520358
4 *107:4 0.2133431
5 *107:5 0.04942522
6 *107:6 0.2133431
7 *107:7 0.01104977
8 *107:8 0.01034152
9 *107:9 0.02631845
10 *107:10 0.02346398
11 *107:11 0.02014516

*RES
1 *107:3 *99:A 22.5
2 *107:4 *107:5 22.5
3 *107:6 *107:7 22.5
4 *107:8 *107:9 22.5
5 *107:9 *108:ZN 1.033908
6 *107:5 *107:3 1.327701
7 *107:7 *107:10 0.5650801
8 *107:10 *107:11 0.3952461
9 *107:11 *107:8 0.4593705
10 *107:4 *107:6 8.663899

*END

*D_NET *109 0.421077

*CONN
*I *101:A I *L 1938.113 *C 1.252 9.312
*I *110:ZN O *L 0.0 *D NAND3_X1 *C 2.755 10.59
*N *109:3 *C 2.755 10.59
*N *109:4 *C 2.755 10.59
*N *109:5 *C 1.235 10.59
*N *109:6 *C 1.235 10.59
*N *109:7 *C 1.235 9.47
*N *109:8 *C 1.235 9.47

*CAP
1 *101:A 0.007742405
2 *110:ZN 0.0
3 *109:3 0.008356932
4 *109:4 0.1134328
5 *109:5 0.09988083
6 *109:6 0.09194777
7 *109:7 0.09455835
8 *109:8 0.005157912

*RES
1 *109:3 *110:ZN 22.5
2 *109:4 *109:3 22.5
3 *109:5 *109:6 22.5
4 *101:A *109:8 0.1502108
5 *109:7 *109:8 22.5
6 *109:7 *109:6 3.050803
7 *109:5 *109:4 4.050857

*END

*D_NET *111 1.007677

*CONN
*I *103:A I *L 1938.113 *C 1.822 13.687
*I *112:ZN O *L 0.0 *D NAND3_X1 *C 7.885 13.39
*N *111:3 *C 7.885 13.39
*N *111:4 *C 7.885 13.39
*N *111:5 *C 1.805 13.39
*N *111:6 *C 1.805 13.39
*N *111:7 *C 1.805 13.53
*N *111:8 *C 1.805 13.53

*CAP
1 *103:A 0.006258879
2 *112:ZN 0.0
3 *111:3 0.008849254
4 *111:4 0.4758611
5 *111:5 0.4644143
6 *111:6 0.02430313
7 *111:7 0.02431617
8 *111:8 0.003674387

*RES
1 *111:3 *112:ZN 22.5
2 *111:4 *111:3 22.5
3 *111:5 *111:6 22.5
4 *103:A *111:8 0.1487859
5 *111:7 *111:8 22.5
6 *111:6 *111:7 0.4194043
7 *111:5 *111:4 23.48987

*END

*D_NET *113 0.2524103

*CONN
*I *106:A I *L 1938.113 *C 0.665 9.33
*I *114:ZN O *L 0.0 *D INV_X1 *C 1.805 9.05
*N *113:3 *C 1.805 9.05
*N *113:4 *C 1.615 9.05
*N *113:5 *C 1.615 9.05
*N *113:6 *C 0.665 9.05
*N *113:7 *C 0.665 9.05
*N *113:8 *C 0.665 9.33

*CAP
1 *106:A 0.0
2 *114:ZN 0.0
3 *113:3 0.02997534
4 *113:4 0.06593172
5 *113:5 0.02736476
6 *113:6 0.06852927
7 *113:7 0.03029808
8 *113:8 0.03031112

*RES
1 *113:3 *114:ZN 22.5
2 *113:4 *113:5 22.5
3 *113:6 *113:7 22.5
4 *113:8 *106:A 22.5
5 *113:7 *113:8 1.235662
6 *113:5 *113:3 0.2294129
7 *113:6 *113:4 2.709619

*END

*D_NET *115 0.198566

*CONN
*I *108:A1 I *L 1831.595 *C 3.705 6.53
*I *116:ZN O *L 0.0 *D NOR2_X1 *C 4.275 6.25
*N *115:3 *C 3.705 6.53
*N *115:4 *C 3.705 6.53
*N *115:5 *C 4.275 6.53
*N *115:6 *C 4.275 6.53
*N *115:7 *C 4.275 6.25

*CAP
1 *108:A1 0.0
2 *116:ZN 0.0
3 *115:3 0.01633324
4 *115:4 0.06695547
5 *115:5 0.0480247
6 *115:6 0.03361976
7 *115:7 0.0336328

*RES
1 *115:3 *108:A1 22.5
2 *115:4 *115:3 22.5
3 *115:5 *115:6 22.5
4 *115:7 *116:ZN 22.5
5 *115:7 *115:6 1.242567
6 *115:4 *115:5 2.082721

*END

*D_NET *117 0.1807646

*CONN
*I *108:A2 I *L 1840.442 *C 3.515 6.53
*I *118:ZN O *L 0.0 *D NOR2_X1 *C 4.085 7.51
*N *117:3 *C 4.085 7.51
*N *117:4 *C 3.515 6.53
*N *117:5 *C 3.515 7.09
*N *117:6 *C 4.085 7.09

*CAP
1 *108:A2 0.0
2 *118:ZN 0.0
3 *117:3 0.02239796
4 *117:4 0.03313039
5 *117:5 0.06927659
6 *117:6 0.05595968

*RES
1 *117:3 *118:ZN 22.5
2 *117:4 *108:A2 22.5
3 *117:4 *117:5 1.753236
4 *117:5 *117:6 1.40117
5 *117:6 *117:3 1.158956

*END

*D_NET *119 1.333907

*CONN
*I *108:A3 I *L 1861.175 *C 3.352 6.512
*I *120:ZN O *L 0.0 *D NOR2_X1 *C 11.115 6.25
*N *119:3 *C 11.115 6.25
*N *119:4 *C 11.115 6.39
*N *119:5 *C 11.115 6.39
*N *119:6 *C 3.325 6.95
*N *119:7 *C 3.325 6.95
*N *119:8 *C 3.325 6.67
*N *119:9 *C 3.325 6.67
*N *119:10 *C 4.655 6.95
*N *119:11 *C 4.655 6.39

*CAP
1 *108:A3 0.006862933
2 *120:ZN 0.0
3 *119:3 0.007203861
4 *119:4 0.5104354
5 *119:5 0.007190818
6 *119:6 0.07777473
7 *119:7 0.03030285
8 *119:8 0.03032894
9 *119:9 0.001693948
10 *119:10 0.1160254
11 *119:11 0.5460885

*RES
1 *119:3 *120:ZN 22.5
2 *119:4 *119:5 22.5
3 *119:6 *119:7 22.5
4 *108:A3 *119:9 0.1487859
5 *119:8 *119:9 22.5
6 *119:8 *119:7 0.6742304
7 *119:3 *119:5 0.1326496
8 *119:6 *119:10 3.551993
9 *119:11 *119:4 25.64552
10 *119:11 *119:10 1.596431

*END

*D_NET *121 0.3583274

*CONN
*I *110:A1 I *L 1831.595 *C 2.945 10.87
*I *122:ZN O *L 0.0 *D NOR2_X1 *C 3.135 9.89
*N *121:3 *C 2.945 10.87
*N *121:4 *C 2.945 10.31
*N *121:5 *C 2.945 10.31
*N *121:6 *C 3.135 9.89
*N *121:7 *C 3.135 9.89
*N *121:8 *C 4.085 10.31
*N *121:9 *C 4.085 9.89

*CAP
1 *110:A1 0.0
2 *122:ZN 0.009733366
3 *121:3 0.04465301
4 *121:4 0.05194284
5 *121:5 0.04462693
6 *121:6 0.04655279
7 *121:7 0.009733366
8 *121:8 0.07823756
9 *121:9 0.07284751

*RES
1 *121:3 *110:A1 22.5
2 *121:4 *121:5 22.5
3 *121:6 *121:7 22.5
4 *121:7 *122:ZN 22.5
5 *121:5 *121:3 1.452839
6 *121:4 *121:8 2.763072
7 *121:6 *121:9 2.341047
8 *121:9 *121:8 1.089003

*END

*D_NET *123 0.3804845

*CONN
*I *110:A2 I *L 1840.442 *C 2.755 10.87
*I *124:ZN O *L 0.0 *D NOR2_X1 *C 4.275 11.71
*N *123:3 *C 2.755 10.87
*N *123:4 *C 2.755 11.29
*N *123:5 *C 2.755 11.29
*N *123:6 *C 3.175 11.29
*N *123:7 *C 3.175 11.29
*N *123:8 *C 3.175 11.71
*N *123:9 *C 3.175 11.71
*N *123:10 *C 4.275 11.71
*N *123:11 *C 4.275 11.71

*CAP
1 *110:A2 0.0
2 *124:ZN 0.01191222
3 *123:3 0.05120154
4 *123:4 0.02547376
5 *123:5 0.04859096
6 *123:6 0.04509006
7 *123:7 0.02539969
8 *123:8 0.04509006
9 *123:9 0.05786993
10 *123:10 0.057944
11 *123:11 0.01191222

*RES
1 *123:3 *110:A2 22.5
2 *123:4 *123:5 22.5
3 *123:6 *123:7 22.5
4 *123:8 *123:9 22.5
5 *123:10 *123:11 22.5
6 *123:11 *124:ZN 22.5
7 *123:3 *123:5 0.7902459
8 *123:4 *123:7 1.392218
9 *123:9 *123:10 2.750895
10 *123:6 *123:8 1.023603

*END

*D_NET *125 1.483045

*CONN
*I *110:A3 I *L 1861.175 *C 2.565 10.87
*I *126:ZN O *L 0.0 *D NOR2_X1 *C 11.495 10.59
*N *125:3 *C 11.495 10.59
*N *125:4 *C 11.495 10.87
*N *125:5 *C 11.495 10.87
*N *125:6 *C 2.565 10.87
*N *125:7 *C 2.565 10.87

*CAP
1 *110:A3 0.01054303
2 *126:ZN 0.0
3 *125:3 0.03698956
4 *125:4 0.6939964
5 *125:5 0.03437898
6 *125:6 0.696594
7 *125:7 0.01054303

*RES
1 *125:3 *126:ZN 22.5
2 *125:4 *125:5 22.5
3 *125:6 *125:7 22.5
4 *125:7 *110:A3 22.5
5 *125:3 *125:5 0.6314418
6 *125:6 *125:4 37.30779

*END

*D_NET *127 0.1242005

*CONN
*I *112:A1 I *L 1831.595 *C 8.075 13.67
*I *128:ZN O *L 0.0 *D NOR2_X1 *C 8.645 13.53
*N *127:3 *C 8.645 13.53
*N *127:4 *C 8.075 13.67
*N *127:5 *C 8.075 13.53

*CAP
1 *112:A1 0.0
2 *128:ZN 0.0
3 *127:3 0.04167454
4 *127:4 0.01784124
5 *127:5 0.06468476

*RES
1 *127:3 *128:ZN 22.5
2 *127:4 *112:A1 22.5
3 *127:5 *127:3 1.762259
4 *127:5 *127:4 0.1792498

*END

*D_NET *129 0.5103724

*CONN
*I *112:A2 I *L 1840.442 *C 7.885 13.81
*I *130:ZN O *L 0.0 *D NOR2_X1 *C 5.225 14.51
*N *129:3 *C 5.225 14.51
*N *129:4 *C 5.225 14.51
*N *129:5 *C 7.885 14.23
*N *129:6 *C 7.885 14.23
*N *129:7 *C 7.885 13.81
*N *129:8 *C 7.655 14.51
*N *129:9 *C 7.655 14.23

*CAP
1 *112:A2 0.01100387
2 *130:ZN 0.0
3 *129:3 0.009563328
4 *129:4 0.1646859
5 *129:5 0.01275683
6 *129:6 0.04761189
7 *129:7 0.06381083
8 *129:8 0.1690552
9 *129:9 0.03188452

*RES
1 *129:3 *130:ZN 22.5
2 *129:4 *129:3 22.5
3 *129:5 *129:6 22.5
4 *129:7 *112:A2 22.5
5 *129:7 *129:6 0.8253244
6 *129:4 *129:8 6.478772
7 *129:9 *129:5 0.7432455
8 *129:9 *129:8 0.6546998

*END

*D_NET *131 0.5045807

*CONN
*I *112:A3 I *L 1861.175 *C 7.695 13.67
*I *132:ZN O *L 0.0 *D NOR2_X1 *C 10.545 13.39
*N *131:3 *C 7.695 13.67
*N *131:4 *C 7.695 13.53
*N *131:5 *C 7.695 13.53
*N *131:6 *C 10.545 13.53
*N *131:7 *C 10.545 13.53
*N *131:8 *C 10.545 13.39

*CAP
1 *112:A3 0.0
2 *132:ZN 0.0
3 *131:3 0.02552902
4 *131:4 0.2226204
5 *131:5 0.02551598
6 *131:6 0.2200228
7 *131:7 0.004140989
8 *131:8 0.00675157

*RES
1 *131:3 *112:A3 22.5
2 *131:4 *131:5 22.5
3 *131:6 *131:7 22.5
4 *131:8 *132:ZN 22.5
5 *131:5 *131:3 0.4490415
6 *131:7 *131:8 0.1326496
7 *131:4 *131:6 10.02863

*END

*D_NET *133 0.4134391

*CONN
*I *134:A I *L 1099.7 *C 0.665 13.67
*I *135:ZN O *L 0.0 *D INV_X1 *C 3.135 13.67
*N *133:3 *C 0.665 13.67
*N *133:4 *C 0.665 13.67
*N *133:5 *C 3.135 13.67
*N *133:6 *C 3.135 13.67

*CAP
1 *134:A 0.0
2 *135:ZN 0.0185087
3 *133:3 0.005589485
4 *133:4 0.1895096
5 *133:5 0.1813226
6 *133:6 0.0185087

*RES
1 *133:3 *134:A 22.5
2 *133:4 *133:3 22.5
3 *133:5 *133:6 22.5
4 *133:6 *135:ZN 22.5
5 *133:4 *133:5 9.183397

*END

*D_NET *85 0.2881762

*CONN
*I *134:Z O *L 0.0 *D BUF_X1 *C 1.045 13.25
*P *85 O *C 0.035 11.99
*N *85:3 *C 1.045 12.41
*N *85:4 *C 1.045 12.41
*N *85:5 *C 1.045 13.25
*N *85:6 *C 0.095 12.41

*CAP
1 *134:Z 0.0
2 *85 0.02443116
3 *85:3 0.04578491
4 *85:4 0.06996922
5 *85:5 0.0725798
6 *85:6 0.07541114

*RES
1 *85:3 *85:4 22.5
2 *85:5 *134:Z 22.5
3 *85:4 *85:5 2.0956
4 *85 *85:6 1.007507
5 *85:6 *85:3 2.624151

*END

*D_NET *136 0.2374856

*CONN
*I *137:A I *L 1099.7 *C 0.665 14.93
*I *138:ZN O *L 0.0 *D INV_X1 *C 1.995 14.93
*N *136:3 *C 1.995 14.93
*N *136:4 *C 1.995 14.93
*N *136:5 *C 0.855 14.93
*N *136:6 *C 0.855 14.93
*N *136:7 *C 0.665 14.93

*CAP
1 *137:A 0.0
2 *138:ZN 0.0
3 *136:3 0.005498064
4 *136:4 0.09368131
5 *136:5 0.08298818
6 *136:6 0.02764599
7 *136:7 0.02767208

*RES
1 *136:3 *138:ZN 22.5
2 *136:4 *136:3 22.5
3 *136:5 *136:6 22.5
4 *136:7 *137:A 22.5
5 *136:7 *136:6 0.2040629
6 *136:5 *136:4 3.640028

*END

*D_NET *86 0.4635138

*CONN
*I *137:Z O *L 0.0 *D BUF_X1 *C 1.035 15.015
*P *86 O *C 0.035 12.83
*N *86:3 *C 1.425 14.51
*N *86:4 *C 1.425 14.51
*N *86:5 *C 1.425 12.83
*N *86:6 *C 1.425 12.83

*CAP
1 *137:Z 0.03190532
2 *86 0.08317677
3 *86:3 0.1218699
4 *86:4 0.02932082
5 *86:5 0.07798169
6 *86:6 0.1192593

*RES
1 *86:3 *86:4 22.5
2 *86:5 *86:6 22.5
3 *137:Z *86:4 1.212019
4 *86:6 *86:3 4.837374
5 *86 *86:5 3.160927

*END

*D_NET *139 0.2334481

*CONN
*I *140:A I *L 1099.7 *C 1.235 13.67
*I *141:ZN O *L 0.0 *D INV_X1 *C 2.375 13.53
*N *139:3 *C 2.375 13.53
*N *139:4 *C 2.375 13.53
*N *139:5 *C 1.235 13.53
*N *139:6 *C 1.235 13.53
*N *139:7 *C 1.235 13.67

*CAP
1 *140:A 0.0
2 *141:ZN 0.0
3 *139:3 0.005751325
4 *139:4 0.1023784
5 *139:5 0.09143202
6 *139:6 0.01563789
7 *139:7 0.01824847

*RES
1 *139:3 *141:ZN 22.5
2 *139:4 *139:3 22.5
3 *139:5 *139:6 22.5
4 *139:7 *140:A 22.5
5 *139:6 *139:7 0.4531238
6 *139:5 *139:4 3.677109

*END

*D_NET *87 0.2300327

*CONN
*I *140:Z O *L 0.0 *D BUF_X1 *C 1.615 13.81
*P *87 O *C 0.035 13.81
*N *87:3 *C 1.615 13.81
*N *87:4 *C 1.615 13.81

*CAP
1 *140:Z 0.01155743
2 *87 0.1060564
3 *87:3 0.1008614
4 *87:4 0.01155743

*RES
1 *87:3 *87:4 22.5
2 *87:4 *140:Z 22.5
3 *87 *87:3 4.624296

*END

*D_NET *142 0.1659174

*CONN
*I *143:A I *L 1099.7 *C 0.095 13.67
*I *144:ZN O *L 0.0 *D INV_X1 *C 0.285 12.69
*N *142:3 *C 0.095 13.67
*N *142:4 *C 0.285 12.69
*N *142:5 *C 0.095 12.69

*CAP
1 *143:A 0.0
2 *144:ZN 0.0
3 *142:3 0.05974525
4 *142:4 0.02062896
5 *142:5 0.0855432

*RES
1 *142:3 *143:A 22.5
2 *142:4 *144:ZN 22.5
3 *142:5 *142:3 2.280517
4 *142:5 *142:4 0.3238769

*END

*D_NET *88 0.1683889

*CONN
*I *143:Z O *L 0.0 *D BUF_X1 *C 0.475 14.09
*P *88 O *C 0.035 14.79
*N *88:3 *C 0.475 14.79
*N *88:4 *C 0.475 14.79
*N *88:5 *C 0.475 14.09

*CAP
1 *143:Z 0.0
2 *88 0.03487759
3 *88:3 0.02968251
4 *88:4 0.05060909
5 *88:5 0.05321967

*RES
1 *88:3 *88:4 22.5
2 *88:5 *143:Z 22.5
3 *88:5 *88:4 1.65952
4 *88 *88:3 1.604828

*END

*D_NET *145 0.728291

*CONN
*I *114:A I *L 1938.113 *C 1.615 9.33
*I *146:ZN O *L 0.0 *D NAND3_X1 *C 5.77 9.175
*N *145:3 *C 5.985 9.33
*N *145:4 *C 5.985 9.33
*N *145:5 *C 5.985 9.33
*N *145:6 *C 1.615 9.33
*N *145:7 *C 1.615 9.33

*CAP
1 *114:A 0.01320312
2 *146:ZN 0.02100958
3 *145:3 0.01296829
4 *145:4 0.01842509
5 *145:5 0.3338226
6 *145:6 0.3156592
7 *145:7 0.01320312

*RES
1 *145:3 *145:4 22.5
2 *145:5 *145:3 22.5
3 *145:6 *145:7 22.5
4 *145:7 *114:A 22.5
5 *146:ZN *145:4 0.6741203
6 *145:6 *145:5 15.36735

*END

*D_NET *147 0.3124474

*CONN
*I *116:A1 I *L 1861.193 *C 4.465 6.53
*I *148:ZN O *L 0.0 *D AND2_X1 *C 4.465 4.29
*N *147:3 *C 4.465 6.53
*N *147:4 *C 4.465 4.29

*CAP
1 *116:A1 0.0
2 *148:ZN 0.0
3 *147:3 0.1562237
4 *147:4 0.1562237

*RES
1 *147:3 *116:A1 22.5
2 *147:4 *148:ZN 22.5
3 *147:4 *147:3 5.81778

*END

*D_NET *149 0.2050826

*CONN
*I *116:A2 I *L 1913.615 *C 4.085 6.53
*I *150:ZN O *L 0.0 *D AND2_X1 *C 3.135 6.53
*N *149:3 *C 3.135 6.53
*N *149:4 *C 3.135 6.67
*N *149:5 *C 3.135 6.67
*N *149:6 *C 4.085 6.67
*N *149:7 *C 4.085 6.67
*N *149:8 *C 4.085 6.53

*CAP
1 *116:A2 0.0
2 *150:ZN 0.0
3 *149:3 0.01905085
4 *149:4 0.0671225
5 *149:5 0.01644027
6 *149:6 0.0671225
7 *149:7 0.01636797
8 *149:8 0.01897855

*RES
1 *149:3 *150:ZN 22.5
2 *149:4 *149:5 22.5
3 *149:6 *149:7 22.5
4 *149:8 *116:A2 22.5
5 *149:3 *149:5 0.4600437
6 *149:8 *149:7 0.4541397
7 *149:4 *149:6 3.29391

*END

*D_NET *151 0.9626091

*CONN
*I *122:A1 I *L 1861.193 *C 3.135 9.33
*I *152:ZN O *L 0.0 *D AND2_X1 *C 4.655 5.55
*N *151:3 *C 3.135 9.33
*N *151:4 *C 3.135 9.47
*N *151:5 *C 3.135 9.47
*N *151:6 *C 4.575 9.47
*N *151:7 *C 4.575 9.47
*N *151:8 *C 4.575 5.55
*N *151:9 *C 4.575 5.55
*N *151:10 *C 4.655 5.55

*CAP
1 *122:A1 0.0
2 *152:ZN 0.01357295
3 *151:3 0.01982603
4 *151:4 0.1292443
5 *151:5 0.01721545
6 *151:6 0.3076937
7 *151:7 0.1291702
8 *151:8 0.3076937